data_image0
_chemical_formula_structural       Li30Se15O60
_chemical_formula_sum              "Li30 Se15 O60"
_cell_length_a       15.608235971226739
_cell_length_b       15.608235971226739
_cell_length_c       15.608235971226739
_cell_angle_alpha    90.0
_cell_angle_beta     90.0
_cell_angle_gamma    90.0

_space_group_name_H-M_alt    "P 1"
_space_group_IT_number       1

loop_
  _space_group_symop_operation_xyz
  'x, y, z'

loop_
  _atom_site_type_symbol
  _atom_site_label
  _atom_site_symmetry_multiplicity
  _atom_site_fract_x
  _atom_site_fract_y
  _atom_site_fract_z
  _atom_site_occupancy
  Li  Li1       1.0  0.3732575418505145  0.7195807180198741  0.0422675262865531  1.0000
  Li  Li2       1.0  0.2907478334128374  0.8328768560830003  0.049035019128438904  1.0000
  Li  Li3       1.0  0.5537680377647252  0.08088175939865105  0.2254145134040173  1.0000
  Li  Li4       1.0  0.7640264495334042  0.14654569700193568  0.31288018688050495  1.0000
  Li  Li5       1.0  0.5765352207413906  0.2956510030129057  0.5411009696792066  1.0000
  Li  Li6       1.0  0.70687038986291  0.4094308249024221  0.7389393150100396  1.0000
  Li  Li7       1.0  0.5806542979427493  0.41409400088177983  0.6070834211445104  1.0000
  Li  Li8       1.0  0.9282384432699253  0.48872424406371123  0.5505432085581078  1.0000
  Li  Li9       1.0  0.4760240044207823  0.04847980742923563  0.031013343053803766  1.0000
  Li  Li10      1.0  0.09596230507178949  0.5877828418081689  0.6863536342030108  1.0000
  Li  Li11      1.0  0.06987310191363727  0.9005379243427749  0.6987026332621027  1.0000
  Li  Li12      1.0  0.07453251975589344  0.23667768094823066  0.7451198251058835  1.0000
  Li  Li13      1.0  0.8151263179937805  0.7984743064515609  0.7237003969183506  1.0000
  Li  Li14      1.0  0.48956509456646724  0.9358573712530812  0.7245397930358968  1.0000
  Li  Li15      1.0  0.6626982911099248  0.036996526940552776  0.7463271210182335  1.0000
  Li  Li16      1.0  0.28467655990248075  0.17168431791698602  0.8078917787815885  1.0000
  Li  Li17      1.0  0.6184592970485874  0.7832884636400268  0.6727734219614945  1.0000
  Li  Li18      1.0  0.5792621544011469  0.5938010419091131  0.0031346281202444537  1.0000
  Li  Li19      1.0  0.10363518785144543  0.019143388513598647  0.8298909436608933  1.0000
  Li  Li20      1.0  0.4764570668313821  0.696040629001575  0.8625376179250515  1.0000
  Li  Li21      1.0  0.30992829303065017  0.5150514714350987  0.07356934756372624  1.0000
  Li  Li22      1.0  0.31670774445061334  0.9288408328910126  0.7590902537885453  1.0000
  Li  Li23      1.0  0.30015850390695664  0.516103030457048  0.5717621967972806  1.0000
  Li  Li24      1.0  0.8805498054238764  0.03580054713762737  0.023999933268050742  1.0000
  Li  Li25      1.0  0.36701131649691654  0.05803091237548608  0.41967746945849327  1.0000
  Li  Li26      1.0  0.6081536636261415  0.6084540710227946  0.7937113723315743  1.0000
  Li  Li27      1.0  0.13469325719688685  0.7918455068346161  0.5191455304024545  1.0000
  Li  Li28      1.0  0.8260416664017478  0.9617081398530988  0.7247611536459752  1.0000
  Li  Li29      1.0  0.8233604251098869  0.945025548888233  0.42244778270581507  1.0000
  Li  Li30      1.0  0.43968904536936904  0.308795493365496  0.6726463455180604  1.0000
  Se  Se1       1.0  0.13684304641166736  0.25266138716001346  0.8832692864620003  1.0000
  Se  Se2       1.0  0.4562302743427049  0.13701888733246387  0.8291374756565817  1.0000
  Se  Se3       1.0  0.7346119992130276  0.5917147639132649  0.731088056703548  1.0000
  Se  Se4       1.0  0.2155119803645379  0.9584977395791163  0.541348652435249  1.0000
  Se  Se5       1.0  0.7523248204213269  0.9996091425681645  0.2508438376652011  1.0000
  Se  Se6       1.0  0.3465494372777166  0.8004099668801663  0.8591271781574186  1.0000
  Se  Se7       1.0  0.3976674459452372  0.9706865942587358  0.2097137327887502  1.0000
  Se  Se8       1.0  0.3859051301530143  0.4139650743933716  0.5232592759167134  1.0000
  Se  Se9       1.0  0.7973341474575352  0.3132393378490715  0.5933568443949515  1.0000
  Se  Se10      1.0  0.7287235296660214  0.9256114047958809  0.8968133665720828  1.0000
  Se  Se11      1.0  0.07265623889114203  0.6101006764981706  0.5469878853045494  1.0000
  Se  Se12      1.0  0.6499259129992304  0.9373706458365154  0.6027222316675799  1.0000
  Se  Se13      1.0  0.01692725060217666  0.1795902650499853  0.3641483030614532  1.0000
  Se  Se14      1.0  0.45222978281634907  0.5991692069328624  0.1492316835611395  1.0000
  Se  Se15      1.0  0.9932759630627165  0.924000251230449  0.4569182703713613  1.0000
  O   O1        1.0  0.5867284943103344  0.7083812271709571  0.8596779255559532  1.0000
  O   O2        1.0  0.40079735344360135  0.13425233079229656  0.9358284389041918  1.0000
  O   O3        1.0  0.3200937256072451  0.9865870318587242  0.4999193506661639  1.0000
  O   O4        1.0  0.6432450894346649  0.5288388575842902  0.7174999603063865  1.0000
  O   O5        1.0  0.7130914595778399  0.9093267645706848  0.6891366635006411  1.0000
  O   O6        1.0  0.9211807312305867  0.6784256527904082  0.9511931397969041  1.0000
  O   O7        1.0  0.19402136664318745  0.2727105755774431  0.7821464080588731  1.0000
  O   O8        1.0  0.2196315485837515  0.9568494152794482  0.664036973295211  1.0000
  O   O9        1.0  0.5126543402713228  0.5733306498504294  0.8980972329191443  1.0000
  O   O10       1.0  0.6700032808542026  0.11001122558251009  0.24290471695030447  1.0000
  O   O11       1.0  0.10360647861222141  0.2472323643156555  0.37420805012469693  1.0000
  O   O12       1.0  0.5407460235459496  0.9067145829272583  0.6225460561375229  1.0000
  O   O13       1.0  0.41425298752804507  0.5864322937797799  0.04317922721954644  1.0000
  O   O14       1.0  0.7344731412676003  0.923733649207172  0.5205229153302483  1.0000
  O   O15       1.0  0.9820089335193783  0.9005261942291508  0.5541817916840948  1.0000
  O   O16       1.0  0.8154733534960221  0.009534734567794556  0.15914430490741727  1.0000
  O   O17       1.0  0.0035042842707966315  0.9967154668142525  0.725561064624693  1.0000
  O   O18       1.0  0.4569812424195867  0.04426149739946861  0.7644341155854022  1.0000
  O   O19       1.0  0.043481166035340545  0.28925485336585477  0.8432412779921237  1.0000
  O   O20       1.0  0.4018986012988121  0.23148904850976815  0.773064614932319  1.0000
  O   O21       1.0  0.7931363257152825  0.3300418154123915  0.6997981235965277  1.0000
  O   O22       1.0  0.42207041549931335  0.5472327766676666  0.8905444785396479  1.0000
  O   O23       1.0  0.05257328154953689  0.7249060826507464  0.5756079124832238  1.0000
  O   O24       1.0  0.8189122271896861  0.04055981892908405  0.3332790710109602  1.0000
  O   O25       1.0  0.0046503813932500275  0.5390616113513046  0.6069975066452691  1.0000
  O   O26       1.0  0.11856798610164565  0.5632117922642514  0.9393182409527902  1.0000
  O   O27       1.0  0.09057265742903198  0.9397351270685113  0.21357614230310565  1.0000
  O   O28       1.0  0.42078900770650596  0.7127344414966894  0.1386269814066871  1.0000
  O   O29       1.0  0.11719187687481064  0.13577405134320303  0.8573808627449717  1.0000
  O   O30       1.0  0.19114748606676796  0.5766834818003379  0.968132083399031  1.0000
  O   O31       1.0  0.8317357586702266  0.4153366436016443  0.5430847987799465  1.0000
  O   O32       1.0  0.906578463020701  0.6518536514796822  0.02109376723467764  1.0000
  O   O33       1.0  0.917069427141439  0.902666565001394  0.39020037270649643  1.0000
  O   O34       1.0  0.22832983917866226  0.8234086081119505  0.8686838544851797  1.0000
  O   O35       1.0  0.14115439442112065  0.9980215843584614  0.24367307838800675  1.0000
  O   O36       1.0  0.8262133582126086  0.9387586373493735  0.9846979421496509  1.0000
  O   O37       1.0  0.7870745825391536  0.8519025458154734  0.8283762508383712  1.0000
  O   O38       1.0  0.1685933964435382  0.5950480642559867  0.60101596040253  1.0000
  O   O39       1.0  0.34276926378122535  0.9102105460320375  0.1276656462468566  1.0000
  O   O40       1.0  0.43162694481469094  0.5173314737675252  0.4964497784098702  1.0000
  O   O41       1.0  0.4054575437418094  0.8562017283539177  0.7758689406977637  1.0000
  O   O42       1.0  0.5588604261834951  0.7501026063484086  0.7937167428886578  1.0000
  O   O43       1.0  0.911531079541867  0.17315728987502776  0.9970481957630111  1.0000
  O   O44       1.0  0.39439512404492844  0.8169078728310503  0.9774227881250636  1.0000
  O   O45       1.0  0.981799811474689  0.1282210539924241  0.4420924787249494  1.0000
  O   O46       1.0  0.5594649664020722  0.5891930470205162  0.13858957114142317  1.0000
  O   O47       1.0  0.8202407897246486  0.5550180305926902  0.6808218900986724  1.0000
  O   O48       1.0  0.665611708735077  0.0392945834921474  0.614659763263559  1.0000
  O   O49       1.0  0.7099543613370427  0.6966656170377942  0.6855833349210394  1.0000
  O   O50       1.0  0.2223966407999869  0.8571388225386327  0.5039320646496568  1.0000
  O   O51       1.0  0.4840683098276717  0.36585247620633154  0.568340498585481  1.0000
  O   O52       1.0  0.7227548045944892  0.026672915741865057  0.8364044051799073  1.0000
  O   O53       1.0  0.3064341674765251  0.9890269053363395  0.2634030445480364  1.0000
  O   O54       1.0  0.45217260213115484  0.05075424681976437  0.15626188945154373  1.0000
  O   O55       1.0  0.8846543898998587  0.23647329815777018  0.03875616207860022  1.0000
  O   O56       1.0  0.009573439712280876  0.3544996274847727  0.04647091396749903  1.0000
  O   O57       1.0  0.9689416910937118  0.4189080412887727  0.03761094683498345  1.0000
  O   O58       1.0  0.9860555978897428  0.9373203442213831  0.7848070606538764  1.0000
  O   O59       1.0  0.6748307891587747  0.3480199438032937  0.6001997842998518  1.0000
  O   O60       1.0  0.3062549828606964  0.40990040276327544  0.5979581057890775  1.0000
