data_image0
_chemical_formula_structural       Na20Li10Bi10Cl60
_chemical_formula_sum              "Na20 Li10 Bi10 Cl60"
_cell_length_a       17.00736190519942
_cell_length_b       17.00736190519942
_cell_length_c       17.00736190519942
_cell_angle_alpha    90.0
_cell_angle_beta     90.0
_cell_angle_gamma    90.0

_space_group_name_H-M_alt    "P 1"
_space_group_IT_number       1

loop_
  _space_group_symop_operation_xyz
  'x, y, z'

loop_
  _atom_site_type_symbol
  _atom_site_label
  _atom_site_symmetry_multiplicity
  _atom_site_fract_x
  _atom_site_fract_y
  _atom_site_fract_z
  _atom_site_occupancy
  Na  Na1       1.0  0.3662661796440916  0.5891226944004319  0.3539083017840794  1.0000
  Na  Na2       1.0  0.5187536521356532  0.48541738722652067  0.4551349110911618  1.0000
  Na  Na3       1.0  0.46378914390863196  0.11351247772206086  0.6464091512716298  1.0000
  Na  Na4       1.0  0.20063863798805698  0.10836599747115228  0.30777295509080516  1.0000
  Na  Na5       1.0  0.14314385597842202  0.6260616123360279  0.18050549353467837  1.0000
  Na  Na6       1.0  0.1820576705645704  0.9591274941864043  0.1094351380305358  1.0000
  Na  Na7       1.0  0.524763732923953  0.40409888466187005  0.7587680853532632  1.0000
  Na  Na8       1.0  0.7376564880116641  0.290070467576099  0.0195491708627773  1.0000
  Na  Na9       1.0  0.7653065363597384  0.4716618798761325  0.23807867615127723  1.0000
  Na  Na10      1.0  0.5617617537963269  0.4867613391730423  0.19332225646248  1.0000
  Na  Na11      1.0  0.5122786425860484  0.6902452539189865  0.6114683333477506  1.0000
  Na  Na12      1.0  0.5212295568398762  0.6348882506225363  0.9414883716258727  1.0000
  Na  Na13      1.0  0.286570320395396  0.997757782989492  0.8215861219680113  1.0000
  Na  Na14      1.0  0.34888335147799565  0.0765944729924175  0.35495133317008887  1.0000
  Na  Na15      1.0  0.16018971618220487  0.6343546959107622  0.4789917639660563  1.0000
  Na  Na16      1.0  0.0032384774373748204  0.9846025711378351  0.12165614599320618  1.0000
  Na  Na17      1.0  0.013122275002640293  0.3681993572608047  0.12117978055443945  1.0000
  Na  Na18      1.0  0.9416013708358999  0.6955234638199677  0.2994498533630653  1.0000
  Na  Na19      1.0  0.8479202416380611  0.9644097081933737  0.37910047058831153  1.0000
  Na  Na20      1.0  0.7686504357232251  0.7110451969285145  0.8305343028359314  1.0000
  Li  Li1       1.0  0.38027500014315874  0.9249649113320014  0.2333539659267626  1.0000
  Li  Li2       1.0  0.18777250100235454  0.7785040428703456  0.3179756456632712  1.0000
  Li  Li3       1.0  0.776891593071265  0.6293199802199904  0.11574972104934544  1.0000
  Li  Li4       1.0  0.9991406381412387  0.2877055327607772  0.3582471241825965  1.0000
  Li  Li5       1.0  0.3584392317062178  0.4869425803945221  0.18838626073456974  1.0000
  Li  Li6       1.0  0.09896725001131897  0.10748525341251572  0.8708897121528801  1.0000
  Li  Li7       1.0  0.7581901228476108  0.2483940881068946  0.22697161684009026  1.0000
  Li  Li8       1.0  0.16980067384047548  0.2737889560302323  0.34663051010192314  1.0000
  Li  Li9       1.0  0.3447556461789104  0.7603721489242165  0.09488375616988508  1.0000
  Li  Li10      1.0  0.8806124823688284  0.15541236190005936  0.5179222480445437  1.0000
  Bi  Bi1       1.0  0.9092216174930895  0.8983784983661387  0.6249081029361381  1.0000
  Bi  Bi2       1.0  0.9337860946003484  0.38675009867600035  0.9070108858598184  1.0000
  Bi  Bi3       1.0  0.1533033866140411  0.9596445203793545  0.5246963206008299  1.0000
  Bi  Bi4       1.0  0.7431978060047465  0.285937595518315  0.4339829191826364  1.0000
  Bi  Bi5       1.0  0.9436754146416684  0.6132409384125694  0.6982574065838945  1.0000
  Bi  Bi6       1.0  0.29484604440865203  0.1605685198163783  0.6680661472706559  1.0000
  Bi  Bi7       1.0  0.6937880357316993  0.051791698854250834  0.6617494037155007  1.0000
  Bi  Bi8       1.0  0.11634270262556956  0.9039102014349581  0.8572981784511261  1.0000
  Bi  Bi9       1.0  0.5574594870764142  0.04641262818823004  0.15482462610335834  1.0000
  Bi  Bi10      1.0  0.7454183978404746  0.9206809196024986  0.18934028224924676  1.0000
  Cl  Cl1       1.0  0.2794092731536105  0.6883627631878759  0.18704758148984107  1.0000
  Cl  Cl2       1.0  0.567775126931864  0.11951770257004612  0.7495541663951507  1.0000
  Cl  Cl3       1.0  0.8800436261310612  0.29723947393184424  0.4950200476703674  1.0000
  Cl  Cl4       1.0  0.45373019569005635  0.19947511718585464  0.5434392411080898  1.0000
  Cl  Cl5       1.0  0.41054323904005297  0.08516166773093059  0.15840934584222333  1.0000
  Cl  Cl6       1.0  0.3593866440518604  0.21270846456574077  0.7955668732151472  1.0000
  Cl  Cl7       1.0  0.7239165581563136  0.9424263099705291  0.3341596946073044  1.0000
  Cl  Cl8       1.0  0.11883873908400493  0.0627955010631222  0.15677488653072436  1.0000
  Cl  Cl9       1.0  0.8998193978360634  0.25817668774124536  0.9806480568737135  1.0000
  Cl  Cl10      1.0  0.6736669422113386  0.6859477374913521  0.9449865966099616  1.0000
  Cl  Cl11      1.0  0.15968771524180125  0.15991626755218577  0.6438804896879582  1.0000
  Cl  Cl12      1.0  0.7752850647455626  0.7848765073688934  0.11720023310587456  1.0000
  Cl  Cl13      1.0  0.8575522291930799  0.07969759867698323  0.6333291056661619  1.0000
  Cl  Cl14      1.0  0.2031712276577275  0.15757610699129865  0.8877005909124356  1.0000
  Cl  Cl15      1.0  0.5926720483880501  0.8894724331925312  0.08583055154684271  1.0000
  Cl  Cl16      1.0  0.6295207622647276  0.0422740525371801  0.5407872468088362  1.0000
  Cl  Cl17      1.0  0.7863121221993591  0.9199248841395431  0.5031770142346876  1.0000
  Cl  Cl18      1.0  0.6810597607210429  0.31588881381851386  0.5524578075020973  1.0000
  Cl  Cl19      1.0  0.8273425541513376  0.4881811722315126  0.9328233541766535  1.0000
  Cl  Cl20      1.0  0.24244620935012814  0.8675341798670263  0.9361036741131521  1.0000
  Cl  Cl21      1.0  0.07533716191329609  0.5743174648097947  0.7253801809622102  1.0000
  Cl  Cl22      1.0  0.25188772778150614  0.07952450460940186  0.4955783095365257  1.0000
  Cl  Cl23      1.0  0.99571440655126  0.8157280270565911  0.7322241028639803  1.0000
  Cl  Cl24      1.0  0.7367172071988708  0.901095994009587  0.7019520200713528  1.0000
  Cl  Cl25      1.0  0.27528562379787225  0.23310876520465731  0.2895524757726622  1.0000
  Cl  Cl26      1.0  0.43063187516136336  0.5068680969548716  0.08658183722139969  1.0000
  Cl  Cl27      1.0  0.6684404892028531  0.15449690688966877  0.13405672029130614  1.0000
  Cl  Cl28      1.0  0.369980415710729  0.9044813990739619  0.09299479173276254  1.0000
  Cl  Cl29      1.0  0.06352195106234126  0.2563686319797559  0.4541034193125324  1.0000
  Cl  Cl30      1.0  0.4666497035212106  0.5114953928391588  0.2997717358099048  1.0000
  Cl  Cl31      1.0  0.683342657891403  0.44610642605263595  0.36093329543051555  1.0000
  Cl  Cl32      1.0  0.3834232208594277  0.6042136596901249  0.5661581879498108  1.0000
  Cl  Cl33      1.0  0.4956347716809817  0.9860017515529742  0.29346938439169246  1.0000
  Cl  Cl34      1.0  0.8785812110824178  0.2593925434884815  0.26868564837528475  1.0000
  Cl  Cl35      1.0  0.08213845786058971  0.9896669531799732  0.3976376318880114  1.0000
  Cl  Cl36      1.0  0.740961702267924  0.14021630966287923  0.4717750801688626  1.0000
  Cl  Cl37      1.0  0.09439434451984191  0.01745694576313017  0.9737215006435845  1.0000
  Cl  Cl38      1.0  0.8896486144565992  0.3085666177933355  0.7711823484574547  1.0000
  Cl  Cl39      1.0  0.8482183390791769  0.8463465723674302  0.28097130508074963  1.0000
  Cl  Cl40      1.0  0.0034574332594494717  0.8646741633419912  0.517813421812677  1.0000
  Cl  Cl41      1.0  0.02832114805994812  0.6020081484253293  0.4200118163875659  1.0000
  Cl  Cl42      1.0  0.9116648112263078  0.5120149841703365  0.6186442887673637  1.0000
  Cl  Cl43      1.0  0.25306308063921673  0.4784929369612879  0.27176210896876385  1.0000
  Cl  Cl44      1.0  0.5626044081509866  0.5564927059968444  0.8027947837302055  1.0000
  Cl  Cl45      1.0  0.054953003682321366  0.026390828496870536  0.6286362264762346  1.0000
  Cl  Cl46      1.0  0.2371867941806607  0.7488201554529298  0.42231537402805963  1.0000
  Cl  Cl47      1.0  0.8962453569933739  0.5871982487263975  0.18548012202658615  1.0000
  Cl  Cl48      1.0  0.40377382296411285  0.9964896280942488  0.6854873335007847  1.0000
  Cl  Cl49      1.0  0.530386754874101  0.11064983980405096  0.002657764618547276  1.0000
  Cl  Cl50      1.0  0.8546741748234096  0.5857399015650333  0.8237730742538758  1.0000
  Cl  Cl51      1.0  0.07930033127304467  0.7435871257854638  0.22661930058328925  1.0000
  Cl  Cl52      1.0  0.8643957228763333  0.9773212756796266  0.12065193644794964  1.0000
  Cl  Cl53      1.0  0.7704705083755972  0.7024009593749273  0.6113920722590496  1.0000
  Cl  Cl54      1.0  0.04526964335313477  0.8021213758853329  0.9489375251226986  1.0000
  Cl  Cl55      1.0  0.025114956655756027  0.3688237548559793  0.2614975541225766  1.0000
  Cl  Cl56      1.0  0.7068154853705577  0.356782406680505  0.14712101207534767  1.0000
  Cl  Cl57      1.0  0.2734265617709004  0.94880956718572  0.36016000152429767  1.0000
  Cl  Cl58      1.0  0.9960472269136466  0.47430366944247815  0.020901610177820197  1.0000
  Cl  Cl59      1.0  0.6707027335232902  0.5685757192742635  0.10753417179158099  1.0000
  Cl  Cl60      1.0  0.19533397971425726  0.8790668033874934  0.7254359120942899  1.0000
