data_image0
_chemical_formula_structural       Li30Cr10F60
_chemical_formula_sum              "Li30 Cr10 F60"
_cell_length_a       87.84643576128812
_cell_length_b       87.84643576128812
_cell_length_c       87.84643576128812
_cell_angle_alpha    90.0
_cell_angle_beta     90.0
_cell_angle_gamma    90.0

_space_group_name_H-M_alt    "P 1"
_space_group_IT_number       1

loop_
  _space_group_symop_operation_xyz
  'x, y, z'

loop_
  _atom_site_type_symbol
  _atom_site_label
  _atom_site_symmetry_multiplicity
  _atom_site_fract_x
  _atom_site_fract_y
  _atom_site_fract_z
  _atom_site_occupancy
  Li  Li1       1.0  0.030160493337652975  0.4549009787784924  0.9799698429240624  1.0000
  Li  Li2       1.0  0.44816773459981674  0.8820048587634671  0.3693352546625721  1.0000
  Li  Li3       1.0  0.6137987827328462  0.3301927317197745  0.49730051002125336  1.0000
  Li  Li4       1.0  0.8459336253026285  0.11306395314490271  0.7212479742059116  1.0000
  Li  Li5       1.0  0.04703780508521187  0.4641700009863328  0.020360439695267463  1.0000
  Li  Li6       1.0  0.05657646699331953  0.4925746124517081  0.014784418344155307  1.0000
  Li  Li7       1.0  0.3520937684574323  0.31363583466438183  0.0762474074428966  1.0000
  Li  Li8       1.0  0.05743692631521698  0.43274479455840587  0.01731930588774655  1.0000
  Li  Li9       1.0  0.49220629809329614  0.823179893764715  0.6652556905713746  1.0000
  Li  Li10      1.0  0.3127704863078917  0.9854209937140392  0.7538880060336972  1.0000
  Li  Li11      1.0  0.3491622549563199  0.3043490011041992  0.053160248339354066  1.0000
  Li  Li12      1.0  0.10718061409384538  0.7115559630344392  0.18638037916839528  1.0000
  Li  Li13      1.0  0.2253748159610633  0.6017844798250247  0.051950215529899646  1.0000
  Li  Li14      1.0  0.04497999887099713  0.4264280104552558  0.9908362816251384  1.0000
  Li  Li15      1.0  0.3964403010168876  0.22310092395098957  0.700243012912402  1.0000
  Li  Li16      1.0  0.23820433253157505  0.9707148340062373  0.9462775460169222  1.0000
  Li  Li17      1.0  0.049501274481614344  0.4666400781459932  0.9949262545661035  1.0000
  Li  Li18      1.0  0.2590702816123427  0.9695778821226297  0.9765199043885673  1.0000
  Li  Li19      1.0  0.1638519659283154  0.553844006687356  0.2823257123110538  1.0000
  Li  Li20      1.0  0.03281791140446004  0.48865320951859964  0.9975824509989412  1.0000
  Li  Li21      1.0  0.8469928855942815  0.09825243584321551  0.7448396395684651  1.0000
  Li  Li22      1.0  0.5884297934013722  0.649978353864466  0.9277532248725497  1.0000
  Li  Li23      1.0  0.2293026658124977  0.5700101597679722  0.05391702127376896  1.0000
  Li  Li24      1.0  0.1903238439441588  0.4733628222745432  0.6469292769663645  1.0000
  Li  Li25      1.0  0.24329810700580787  0.39079666379675754  0.6396859689146666  1.0000
  Li  Li26      1.0  0.754399460131837  0.46944390397343005  0.9730860041038271  1.0000
  Li  Li27      1.0  0.29432188404507165  0.9687442547766463  0.7538240803421413  1.0000
  Li  Li28      1.0  0.773194392550426  0.49140293595733464  0.9590044482361167  1.0000
  Li  Li29      1.0  0.17668695807388593  0.5317119109614765  0.28811923682256646  1.0000
  Li  Li30      1.0  0.21253159184599077  0.9527236546620335  0.926207188298578  1.0000
  Cr  Cr1       1.0  0.585059882970109  0.01249588708640771  0.06212643506124646  1.0000
  Cr  Cr2       1.0  0.6664461868554763  0.547207404140736  0.29059117496764536  1.0000
  Cr  Cr3       1.0  0.6805088681849671  0.5137044317900632  0.3171404210589639  1.0000
  Cr  Cr4       1.0  0.2072483674650598  0.5822533880696521  0.03371927663801788  1.0000
  Cr  Cr5       1.0  0.7460611589048858  0.5080162843664034  0.9765922278713008  1.0000
  Cr  Cr6       1.0  0.8192585311410214  0.12308627887145303  0.7484625512485905  1.0000
  Cr  Cr7       1.0  0.22520559720429784  0.4326079612925119  0.6253863242871899  1.0000
  Cr  Cr8       1.0  0.24179617941929568  0.6354113682607039  0.8181570439037018  1.0000
  Cr  Cr9       1.0  0.42905479722158546  0.22872211314373503  0.7051920394157216  1.0000
  Cr  Cr10      1.0  0.19455866184947612  0.44675663359416234  0.6312266904450288  1.0000
  F   F1        1.0  0.050497429805619956  0.4450800830498449  0.02862577827979378  1.0000
  F   F2        1.0  0.20536414726252028  0.5713163707305287  0.05391512613339663  1.0000
  F   F3        1.0  0.7682266076077041  0.4706037427216199  0.9586844776959224  1.0000
  F   F4        1.0  0.028229917011987293  0.47241253292892693  0.9862957645106747  1.0000
  F   F5        1.0  0.19909965143420025  0.42561629213219504  0.6381493964915721  1.0000
  F   F6        1.0  0.2534860678306574  0.9671105697284729  0.9573534604611434  1.0000
  F   F7        1.0  0.17705440102043896  0.5435622108068573  0.2680546294699115  1.0000
  F   F8        1.0  0.6547815964501625  0.5595145525704616  0.27806989523226905  1.0000
  F   F9        1.0  0.24496710985226686  0.6266644867362396  0.8375100935682017  1.0000
  F   F10       1.0  0.2384298808665901  0.38621651648430305  0.6554962485100599  1.0000
  F   F11       1.0  0.15868422748368563  0.5290330066136056  0.2729476438257085  1.0000
  F   F12       1.0  0.7394074151484061  0.5249704054879945  0.9898996542318104  1.0000
  F   F13       1.0  0.22467779625239687  0.5697821647493263  0.033551635389920564  1.0000
  F   F14       1.0  0.1899178148954825  0.4683614640755968  0.6248470277009205  1.0000
  F   F15       1.0  0.23034317286728634  0.6233411299574254  0.8056399136798048  1.0000
  F   F16       1.0  0.8590994627839903  0.10716139823485098  0.7327808419147501  1.0000
  F   F17       1.0  0.8270207938440056  0.1299127893214067  0.7658947649838399  1.0000
  F   F18       1.0  0.3633665462263806  0.3205970452333478  0.06017034845321856  1.0000
  F   F19       1.0  0.766254299715646  0.5092641454090066  0.9680232656432107  1.0000
  F   F20       1.0  0.4397164060608358  0.2243705132612921  0.7217278047793617  1.0000
  F   F21       1.0  0.4403753255317644  0.22736984494628582  0.688106114913447  1.0000
  F   F22       1.0  0.22177332526822566  0.9686547785785088  0.9353616961783615  1.0000
  F   F23       1.0  0.05720026528958832  0.417041290199367  0.0028177570158128434  1.0000
  F   F24       1.0  0.30239115709463527  0.9763107421079086  0.7337513900586065  1.0000
  F   F25       1.0  0.3537545252292556  0.2918769034618829  0.06876097358608946  1.0000
  F   F26       1.0  0.04393019234421184  0.5040608810737841  0.0031777680455067348  1.0000
  F   F27       1.0  0.11878895716337855  0.7073547267117211  0.1992613415285867  1.0000
  F   F28       1.0  0.06407992865308261  0.47719104304021775  0.0032736182229313737  1.0000
  F   F29       1.0  0.22087928678390817  0.45149990236369514  0.6358879440693264  1.0000
  F   F30       1.0  0.1749001834330366  0.5492793237067684  0.29888424169262284  1.0000
  F   F31       1.0  0.1848520403701377  0.4543390794887821  0.6522248931598985  1.0000
  F   F32       1.0  0.19400289067347803  0.9580787294961475  0.9254700744725418  1.0000
  F   F33       1.0  0.8015261700083864  0.13222592011786555  0.7425126476904393  1.0000
  F   F34       1.0  0.2973055484059234  0.9828906219384629  0.7685184482642718  1.0000
  F   F35       1.0  0.41150402172328626  0.24003744866988158  0.6971331956609979  1.0000
  F   F36       1.0  0.3245561058218514  0.9717097745804725  0.7501677019286357  1.0000
  F   F37       1.0  0.5828744672779059  0.017088735196506836  0.04102732790742605  1.0000
  F   F38       1.0  0.03437197974668993  0.4800714444356303  0.01965861533049118  1.0000
  F   F39       1.0  0.485616675013185  0.8340987862249765  0.6772393536232943  1.0000
  F   F40       1.0  0.7453723993848166  0.487317632875258  0.9822531682800351  1.0000
  F   F41       1.0  0.6776141603812635  0.49233936794429656  0.32570964634113486  1.0000
  F   F42       1.0  0.8243935974756254  0.10372991181206505  0.7519379583817044  1.0000
  F   F43       1.0  0.8295431954526415  0.1181277238700602  0.7300856542593459  1.0000
  F   F44       1.0  0.20206947213356327  0.5862584859179776  0.014128645258100203  1.0000
  F   F45       1.0  0.40933459726445287  0.2192277446122106  0.7150967536231463  1.0000
  F   F46       1.0  0.20810512833250328  0.6024325540954917  0.04256813502478285  1.0000
  F   F47       1.0  0.23934579287002666  0.4174412572627855  0.624435848240572  1.0000
  F   F48       1.0  0.3329825935029261  0.31148178908515667  0.06586712389993125  1.0000
  F   F49       1.0  0.23806384216905385  0.5890329722830495  0.05728867070620147  1.0000
  F   F50       1.0  0.593198143313347  0.6474494036565805  0.9463900255530587  1.0000
  F   F51       1.0  0.5363868293819837  0.7154851164480736  0.15693136416245657  1.0000
  F   F52       1.0  0.21098014919256136  0.4417381521881266  0.6109356346848144  1.0000
  F   F53       1.0  0.6030481549696176  0.3124668765464196  0.4955574075041631  1.0000
  F   F54       1.0  0.4656275240854559  0.8827492880064249  0.36495775569329325  1.0000
  F   F55       1.0  0.04717302886705288  0.4493120950456491  0.9965739546497119  1.0000
  F   F56       1.0  0.5886482309356544  0.0010826515090438542  0.07932204518820662  1.0000
  F   F57       1.0  0.030368888820869692  0.43035694139555847  0.9760282930299493  1.0000
  F   F58       1.0  0.6754897529615005  0.5298951290741922  0.3059968020794233  1.0000
  F   F59       1.0  0.25438294372550907  0.9768498975044442  0.9953817490029846  1.0000
  F   F60       1.0  0.631471060097782  0.32356743079488226  0.5022523685537843  1.0000
