data_image0
_chemical_formula_structural       Li20Ga20Cl60
_chemical_formula_sum              "Li20 Ga20 Cl60"
_cell_length_a       16.32703857758936
_cell_length_b       16.32703857758936
_cell_length_c       16.32703857758936
_cell_angle_alpha    90.0
_cell_angle_beta     90.0
_cell_angle_gamma    90.0

_space_group_name_H-M_alt    "P 1"
_space_group_IT_number       1

loop_
  _space_group_symop_operation_xyz
  'x, y, z'

loop_
  _atom_site_type_symbol
  _atom_site_label
  _atom_site_symmetry_multiplicity
  _atom_site_fract_x
  _atom_site_fract_y
  _atom_site_fract_z
  _atom_site_occupancy
  Li  Li1       1.0  0.3958458441758257  0.014861908011325944  0.5511357634210892  1.0000
  Li  Li2       1.0  0.5387924304672713  0.33349400880843016  0.3685009981313194  1.0000
  Li  Li3       1.0  0.2402742559222227  0.7772157726647209  0.6211644860933456  1.0000
  Li  Li4       1.0  0.9264157186833155  0.884492834277575  0.8377908603276653  1.0000
  Li  Li5       1.0  0.9762664951381235  0.1854713184123935  0.3731580155182317  1.0000
  Li  Li6       1.0  0.48497861142298515  0.6515271458435183  0.3919064912082294  1.0000
  Li  Li7       1.0  0.6261358906422135  0.6693628645874854  0.16086273932926023  1.0000
  Li  Li8       1.0  0.3731760517141597  0.11615295363746772  0.18114559068057234  1.0000
  Li  Li9       1.0  0.8973862322332739  0.5990049622746526  0.70253804325688  1.0000
  Li  Li10      1.0  0.8711963573118434  0.9274915187194664  0.5425454341922363  1.0000
  Li  Li11      1.0  0.22652102205556357  0.5434221360656255  0.27390426199806794  1.0000
  Li  Li12      1.0  0.06211046654439657  0.7767642728307491  0.7953346462026395  1.0000
  Li  Li13      1.0  0.9548876895962146  0.16114034057546256  0.11379956165350102  1.0000
  Li  Li14      1.0  0.7424492982479154  0.25980689282353864  0.08521759733178871  1.0000
  Li  Li15      1.0  0.7058052592092263  0.7973943229484449  0.9534413300233635  1.0000
  Li  Li16      1.0  0.5045408834772296  0.8953774601716187  0.2817619282507584  1.0000
  Li  Li17      1.0  0.23936073492992316  0.20232546053842212  0.6588660073165267  1.0000
  Li  Li18      1.0  0.13796878781873087  0.9491016558216531  0.8182051317464685  1.0000
  Li  Li19      1.0  0.9058109563038886  0.0345706604194367  0.7147451964762153  1.0000
  Li  Li20      1.0  0.453712197236704  0.4105263190925863  0.7010917074133274  1.0000
  Ga  Ga1       1.0  0.7499162138856765  0.512469045671524  0.9737604964353455  1.0000
  Ga  Ga2       1.0  0.6346089448430723  0.9913767661657183  0.6574849133035265  1.0000
  Ga  Ga3       1.0  0.5666987873656899  0.2079139227444617  0.7026880849527051  1.0000
  Ga  Ga4       1.0  0.046884396244739834  0.3706971874488321  0.31423461255635105  1.0000
  Ga  Ga5       1.0  0.38767458581638553  0.23266231112610772  0.28957189832330993  1.0000
  Ga  Ga6       1.0  0.11629899704059743  0.568885102182172  0.08480994100319633  1.0000
  Ga  Ga7       1.0  0.05644159292991607  0.9605374276967535  0.36836232739700936  1.0000
  Ga  Ga8       1.0  0.030602382540345436  0.29353042258342404  0.9745903395556113  1.0000
  Ga  Ga9       1.0  0.35182992798436274  0.8578829370859465  0.7288012228284797  1.0000
  Ga  Ga10      1.0  0.09030998182658934  0.7510380260159468  0.08245861781506614  1.0000
  Ga  Ga11      1.0  0.8465926500073364  0.3390768775557444  0.5290971795622587  1.0000
  Ga  Ga12      1.0  0.044912934090181794  0.13013393242557045  0.6178680856436709  1.0000
  Ga  Ga13      1.0  0.25605758099883974  0.7184457211218623  0.3457804324294469  1.0000
  Ga  Ga14      1.0  0.8391247953840855  0.5928839936966642  0.4788550114912441  1.0000
  Ga  Ga15      1.0  0.6951335352152636  0.4317528258706862  0.2735669005029561  1.0000
  Ga  Ga16      1.0  0.14398250624728726  0.4670500994057373  0.7001265510004779  1.0000
  Ga  Ga17      1.0  0.8490852810255106  0.19167508700922942  0.720237495031304  1.0000
  Ga  Ga18      1.0  0.7724129166225522  0.9710195812349047  0.10782672564498097  1.0000
  Ga  Ga19      1.0  0.3840211064145566  0.9321568441553285  0.0777739662107396  1.0000
  Ga  Ga20      1.0  0.4301376620404983  0.25651964087042156  0.8924018758019552  1.0000
  Cl  Cl1       1.0  0.8786390262195366  0.6955458449025297  0.5156137595741841  1.0000
  Cl  Cl2       1.0  0.2537769329652161  0.09805763691367053  0.5657336048234941  1.0000
  Cl  Cl3       1.0  0.6927741165137365  0.2958560905978984  0.22704066158912486  1.0000
  Cl  Cl4       1.0  0.8026330150713222  0.36354750076208964  0.03632966549498026  1.0000
  Cl  Cl5       1.0  0.6527713327145396  0.10640494243446508  0.5728638547347025  1.0000
  Cl  Cl6       1.0  0.9491083578257983  0.5072990304914247  0.4541671171168572  1.0000
  Cl  Cl7       1.0  0.4789523789858647  0.9499098964453777  0.9738568671279568  1.0000
  Cl  Cl8       1.0  0.9353316031528541  0.9431592890884268  0.39995905781197927  1.0000
  Cl  Cl9       1.0  0.0671957523820015  0.4470152139980575  0.04282982838149141  1.0000
  Cl  Cl10      1.0  0.052276428365710226  0.23599373337383756  0.18192618321830833  1.0000
  Cl  Cl11      1.0  0.8581751976450386  0.20928636677298168  0.42499142169919524  1.0000
  Cl  Cl12      1.0  0.6080773520328908  0.744250101834407  0.017838146301787882  1.0000
  Cl  Cl13      1.0  0.06426418835684142  0.6076872670409381  0.1985745007463895  1.0000
  Cl  Cl14      1.0  0.046687586713788434  0.581918073690899  0.6971057484237775  1.0000
  Cl  Cl15      1.0  0.08356313766217906  0.6524508031267896  0.9587234378143028  1.0000
  Cl  Cl16      1.0  0.06557555483167277  0.3590620590840147  0.7108260175028378  1.0000
  Cl  Cl17      1.0  0.24442379313436824  0.4674765728112632  0.7802446045399541  1.0000
  Cl  Cl18      1.0  0.753198656548721  0.2528342437532444  0.6406699945651751  1.0000
  Cl  Cl19      1.0  0.2767530623849514  0.9239146182902982  0.8381650673238313  1.0000
  Cl  Cl20      1.0  0.26827015822537587  0.15638703912267382  0.24791195249422748  1.0000
  Cl  Cl21      1.0  0.49505965612082237  0.13369737089761435  0.8732201962523486  1.0000
  Cl  Cl22      1.0  0.22469158237830145  0.5997319512891741  0.4059301285096175  1.0000
  Cl  Cl23      1.0  0.13189074516303023  0.8409812815820087  0.6894877177915801  1.0000
  Cl  Cl24      1.0  0.15314684783374144  0.4655807378667398  0.5635772882849528  1.0000
  Cl  Cl25      1.0  0.910722093751436  0.2874689130411409  0.8495850600263832  1.0000
  Cl  Cl26      1.0  0.321713602655494  0.7020394678655415  0.7326057432306494  1.0000
  Cl  Cl27      1.0  0.7006386021137517  0.9293586536477034  0.5621386620090271  1.0000
  Cl  Cl28      1.0  0.8987191109233732  0.36655358978222674  0.26351192248129957  1.0000
  Cl  Cl29      1.0  0.38152443173846884  0.36714588036129964  0.2625486551299403  1.0000
  Cl  Cl30      1.0  0.2834511635885221  0.022012967086915802  0.1416467004227716  1.0000
  Cl  Cl31      1.0  0.3842178771956636  0.7986774714230924  0.061553183975528114  1.0000
  Cl  Cl32      1.0  0.8567970273558226  0.8930666767194555  0.13936589630951385  1.0000
  Cl  Cl33      1.0  0.4375246622491457  0.7662257575222972  0.3460649413960504  1.0000
  Cl  Cl34      1.0  0.18693549131671117  0.4512966184594591  0.20091388117583223  1.0000
  Cl  Cl35      1.0  0.9150544586076147  0.038667056059153396  0.856949990548428  1.0000
  Cl  Cl36      1.0  0.13731459058411782  0.8688052347213087  0.427452118653702  1.0000
  Cl  Cl37      1.0  0.8829739764018545  0.583885619448643  0.8781997552084762  1.0000
  Cl  Cl38      1.0  0.07599862401649947  0.00020632848049980193  0.23395682428476783  1.0000
  Cl  Cl39      1.0  0.5178076527300027  0.34501864778327007  0.8505429379676661  1.0000
  Cl  Cl40      1.0  0.23960642072176896  0.6214708168338654  0.0761856828680249  1.0000
  Cl  Cl41      1.0  0.5240416976285378  0.5174937261746555  0.3729909671333902  1.0000
  Cl  Cl42      1.0  0.6138599225623889  0.7714868559979259  0.2510724189315754  1.0000
  Cl  Cl43      1.0  0.7603245002967934  0.5445632402826582  0.38045495100094573  1.0000
  Cl  Cl44      1.0  0.8539025026933416  0.7788492305193392  0.8772050977856933  1.0000
  Cl  Cl45      1.0  0.8249508176290374  0.11994517285839448  0.09156347527455097  1.0000
  Cl  Cl46      1.0  0.33195483011803867  0.299484107330369  0.7501847040911067  1.0000
  Cl  Cl47      1.0  0.5069934823703436  0.9888532385401081  0.6412968192874691  1.0000
  Cl  Cl48      1.0  0.9293795751980184  0.9096719012519253  0.6739255413108284  1.0000
  Cl  Cl49      1.0  0.7878248378279507  0.5362563653941266  0.6106002964493539  1.0000
  Cl  Cl50      1.0  0.5667015172660228  0.3520520939965149  0.6321847659406361  1.0000
  Cl  Cl51      1.0  0.5032427971090865  0.18509441006247185  0.20890465225174193  1.0000
  Cl  Cl52      1.0  0.46648228509334405  0.8653024960368226  0.7962270841736773  1.0000
  Cl  Cl53      1.0  0.05700453758471968  0.8878718503673381  0.9156012285118352  1.0000
  Cl  Cl54      1.0  0.46723131787596894  0.9930112532644826  0.1922971476436628  1.0000
  Cl  Cl55      1.0  0.4354508994072511  0.18996484303573613  0.41529950232339824  1.0000
  Cl  Cl56      1.0  0.686116415114774  0.03618551259799463  0.7796979642109189  1.0000
  Cl  Cl57      1.0  0.3360705567071909  0.9033178815013049  0.5981606175316224  1.0000
  Cl  Cl58      1.0  0.10291635427170753  0.13535056742686025  0.7458133337961055  1.0000
  Cl  Cl59      1.0  0.07928044296812173  0.06190206511375989  0.44415125602257866  1.0000
  Cl  Cl60      1.0  0.36750496421406226  0.22431987006062648  0.011203331216059098  1.0000
