data_image0
_chemical_formula_structural       Li17Ga17Br68
_chemical_formula_sum              "Li17 Ga17 Br68"
_cell_length_a       15.833167536417555
_cell_length_b       15.833167536417555
_cell_length_c       15.833167536417555
_cell_angle_alpha    90.0
_cell_angle_beta     90.0
_cell_angle_gamma    90.0

_space_group_name_H-M_alt    "P 1"
_space_group_IT_number       1

loop_
  _space_group_symop_operation_xyz
  'x, y, z'

loop_
  _atom_site_type_symbol
  _atom_site_label
  _atom_site_symmetry_multiplicity
  _atom_site_fract_x
  _atom_site_fract_y
  _atom_site_fract_z
  _atom_site_occupancy
  Li  Li1       1.0  0.5103313434181795  0.5772853025965915  0.9146980670736288  1.0000
  Li  Li2       1.0  0.6973924590367924  0.6868100376283832  0.2370580187230022  1.0000
  Li  Li3       1.0  0.43605601695286866  0.1621000290129262  0.22326900499145955  1.0000
  Li  Li4       1.0  0.09445103065853089  0.5233594724563132  0.46473967309101516  1.0000
  Li  Li5       1.0  0.2629377231210821  0.5404933476534993  0.8589339978429792  1.0000
  Li  Li6       1.0  0.014114071201657004  0.8783084924947209  0.5217765999063579  1.0000
  Li  Li7       1.0  0.6798829811113483  0.4093175147080208  0.5136550989178723  1.0000
  Li  Li8       1.0  0.9933826115784439  0.7859803421260884  0.2700811113391268  1.0000
  Li  Li9       1.0  0.34822312315145476  0.38611806813744515  0.6388713045492767  1.0000
  Li  Li10      1.0  0.023944028525618166  0.7009868770000697  0.8094539598339267  1.0000
  Li  Li11      1.0  0.12375690406691198  0.7257371003960905  0.5179278873891207  1.0000
  Li  Li12      1.0  0.6424234239271656  0.14163217339873735  0.6871292525541122  1.0000
  Li  Li13      1.0  0.2238661857995128  0.36912322197635516  0.9321287496027227  1.0000
  Li  Li14      1.0  0.6111067256672922  0.6796731824922849  0.5284185899845528  1.0000
  Li  Li15      1.0  0.705984759394894  0.10922494001243699  0.078686891138539  1.0000
  Li  Li16      1.0  0.8648895876819763  0.28248973293393886  0.9993903414501033  1.0000
  Li  Li17      1.0  0.14869042113678566  0.41677882890017304  0.32816824021452384  1.0000
  Ga  Ga1       1.0  0.4457567886710858  0.246911044660404  0.5342243076964364  1.0000
  Ga  Ga2       1.0  0.9243458094190061  0.4050420933904336  0.7594008114845345  1.0000
  Ga  Ga3       1.0  0.3098119462339574  0.9528693805740343  0.8990205598743024  1.0000
  Ga  Ga4       1.0  0.22546231155906352  0.2911651959862011  0.1875810277058476  1.0000
  Ga  Ga5       1.0  0.6140126098042955  0.9081449823113192  0.5053254766897052  1.0000
  Ga  Ga6       1.0  0.45555596489429706  0.5613716401843187  0.4816494582506213  1.0000
  Ga  Ga7       1.0  0.012547852059332116  0.6780016834302377  0.02296471983600031  1.0000
  Ga  Ga8       1.0  0.8587165265566805  0.11660761338444596  0.27790234690712023  1.0000
  Ga  Ga9       1.0  0.6547637970368368  0.8789192131700825  0.1465630210528902  1.0000
  Ga  Ga10      1.0  0.14090337274540995  0.8853705134686084  0.7176853872888385  1.0000
  Ga  Ga11      1.0  0.9385068926670885  0.4101036177653968  0.47584199086267936  1.0000
  Ga  Ga12      1.0  0.6770828763271054  0.40245727630550754  0.14407880069011592  1.0000
  Ga  Ga13      1.0  0.11882650205359035  0.1898793215529928  0.06453161680130068  1.0000
  Ga  Ga14      1.0  0.6442769096453387  0.5548166081163688  0.7793231608613517  1.0000
  Ga  Ga15      1.0  0.3768472253477433  0.5803878754082192  0.09790792775649568  1.0000
  Ga  Ga16      1.0  0.901877666824562  0.9755442158546935  0.7337659709558699  1.0000
  Ga  Ga17      1.0  0.32380741231867405  0.7754684286456056  0.22722028484625384  1.0000
  Br  Br1       1.0  0.42127045749580216  0.8814172485902643  0.23473806102892025  1.0000
  Br  Br2       1.0  0.38879709026006076  0.45213622230900086  0.955895745339391  1.0000
  Br  Br3       1.0  0.8922092395495396  0.349004595405582  0.5982331204495815  1.0000
  Br  Br4       1.0  0.6364677057728736  0.022985059257870866  0.2087281114654241  1.0000
  Br  Br5       1.0  0.6545072860152414  0.9111507687788232  0.3720157157306966  1.0000
  Br  Br6       1.0  0.545926798580978  0.7443683615464464  0.15542223316625195  1.0000
  Br  Br7       1.0  0.6099556211034801  0.6599082162501114  0.8747596776939458  1.0000
  Br  Br8       1.0  0.9665357970321202  0.543142117376058  0.08934218804291238  1.0000
  Br  Br9       1.0  0.3458314536472896  0.9526308163370467  0.033528446116283604  1.0000
  Br  Br10      1.0  0.012073640073156458  0.7499480925474338  0.43436629239461055  1.0000
  Br  Br11      1.0  0.27152209261265425  0.7216405236908412  0.10055537090616433  1.0000
  Br  Br12      1.0  0.4126095364677471  0.45788857373083025  0.3844110870110826  1.0000
  Br  Br13      1.0  0.035557860090733806  0.26994805952152273  0.15149347135809288  1.0000
  Br  Br14      1.0  0.2746600483350935  0.79970465141214  0.7611809067948891  1.0000
  Br  Br15      1.0  0.643812497449765  0.5933636565749862  0.4276355748614424  1.0000
  Br  Br16      1.0  0.7892734187797259  0.08950697797206403  0.9443922108439655  1.0000
  Br  Br17      1.0  0.5977415591492312  0.18501885456748313  0.22321662009265153  1.0000
  Br  Br18      1.0  0.5108177069159767  0.5147441208319515  0.09672661569893526  1.0000
  Br  Br19      1.0  0.9411594281029213  0.12113814139145962  0.7337485269731977  1.0000
  Br  Br20      1.0  0.913756090249852  0.7298064331951403  0.9232187866804406  1.0000
  Br  Br21      1.0  0.3199186655127291  0.6286678371581444  0.26638815173553887  1.0000
  Br  Br22      1.0  0.9433511878961771  0.5273255054067478  0.8222971593228119  1.0000
  Br  Br23      1.0  0.4925390518828181  0.8347220840350641  0.5611895308958158  1.0000
  Br  Br24      1.0  0.9652462702985125  0.5192916954292823  0.580842737311333  1.0000
  Br  Br25      1.0  0.9888763631326353  0.13280059566996438  0.3579695762800701  1.0000
  Br  Br26      1.0  0.04002223231751589  0.289113471592251  0.754937110083801  1.0000
  Br  Br27      1.0  0.6383823508281482  0.1551150370702095  0.8728427435120422  1.0000
  Br  Br28      1.0  0.8217828546809731  0.18682713183875999  0.11575040935197654  1.0000
  Br  Br29      1.0  0.6935157914623016  0.009039953963376281  0.6038774845089101  1.0000
  Br  Br30      1.0  0.48354361475488233  0.5596441289420595  0.6425913086625983  1.0000
  Br  Br31      1.0  0.8825547014077202  0.9673006243147774  0.2542042738621131  1.0000
  Br  Br32      1.0  0.7299816390861454  0.10560883894692864  0.35944745539807105  1.0000
  Br  Br33      1.0  0.7047431351081551  0.7717788826222534  0.5260178004260689  1.0000
  Br  Br34      1.0  0.7230999181420765  0.5710088159307345  0.6613140029225205  1.0000
  Br  Br35      1.0  0.47744782767578253  0.16048727545465075  0.6952050949907702  1.0000
  Br  Br36      1.0  0.8044337080080929  0.8078301940821234  0.16419717353195043  1.0000
  Br  Br37      1.0  0.0547121568729223  0.06588875209152814  0.056370054427522895  1.0000
  Br  Br38      1.0  0.8266208932612269  0.37447418851248127  0.37579637719981174  1.0000
  Br  Br39      1.0  0.5953964572605532  0.42042804276708146  0.7966312820195611  1.0000
  Br  Br40      1.0  0.11764079666116323  0.6858531167156118  0.915197297504955  1.0000
  Br  Br41      1.0  0.07208630156162155  0.7693744317994927  0.11571973917526646  1.0000
  Br  Br42      1.0  0.8812021482077075  0.923485589393622  0.5982193568449634  1.0000
  Br  Br43      1.0  0.42868764700954975  0.8895104194206357  0.8171954714035605  1.0000
  Br  Br44      1.0  0.8003322869596966  0.32015325205692735  0.8371602763567656  1.0000
  Br  Br45      1.0  0.6881061250467096  0.33226586841225975  0.003512668873247179  1.0000
  Br  Br46      1.0  0.49269493530039243  0.38946268642735493  0.5494976456984454  1.0000
  Br  Br47      1.0  0.33079622071349757  0.27037904383598604  0.335868739459343  1.0000
  Br  Br48      1.0  0.6643728178240387  0.2578995407479552  0.5452011924934079  1.0000
  Br  Br49      1.0  0.04548286107323969  0.7731735387121755  0.6537064488416497  1.0000
  Br  Br50      1.0  0.019294031490968644  0.488165506961657  0.30767104078700735  1.0000
  Br  Br51      1.0  0.27136204859860225  0.12504481696092928  0.12765819828878155  1.0000
  Br  Br52      1.0  0.21717555487833695  0.8410127124901494  0.30802077964747854  1.0000
  Br  Br53      1.0  0.3894961905659162  0.6794942312232111  0.45884297509364763  1.0000
  Br  Br54      1.0  0.09828755353831053  0.35911557290985674  0.49512781189314864  1.0000
  Br  Br55      1.0  0.29704801602564157  0.2706365076256186  0.5546908238514786  1.0000
  Br  Br56      1.0  0.2635730889255151  0.43464538199058556  0.17602512354604216  1.0000
  Br  Br57      1.0  0.49332775297854514  0.17426952601719026  0.4078123714483259  1.0000
  Br  Br58      1.0  0.7966799631502514  0.5139177327957973  0.1519235173885174  1.0000
  Br  Br59      1.0  0.16714054264692044  0.9120329951212518  0.5699038702067178  1.0000
  Br  Br60      1.0  0.6497140932836855  0.40820464268504636  0.2974570483511853  1.0000
  Br  Br61      1.0  0.08516157637006705  0.9160362711165495  0.8467294489129096  1.0000
  Br  Br62      1.0  0.18411809599714757  0.39509569291654906  0.7859513469054115  1.0000
  Br  Br63      1.0  0.6534393384083161  0.8351402790313073  0.9902066581307088  1.0000
  Br  Br64      1.0  0.7803998418581984  0.9171690188008866  0.8116770779533569  1.0000
  Br  Br65      1.0  0.25197218681363415  0.04502682463596496  0.8050108749405438  1.0000
  Br  Br66      1.0  0.1865233946359706  0.5963700297594683  0.5794216050598311  1.0000
  Br  Br67      1.0  0.14615590377474508  0.23379294279001933  0.9294124076283559  1.0000
  Br  Br68      1.0  0.42247700722425785  0.6855086155616147  0.9902551089234054  1.0000
