data_image0
_chemical_formula_structural       K20Li10Tl10F60
_chemical_formula_sum              "K20 Li10 Tl10 F60"
_cell_length_a       14.21571037240353
_cell_length_b       14.21571037240353
_cell_length_c       14.21571037240353
_cell_angle_alpha    90.0
_cell_angle_beta     90.0
_cell_angle_gamma    90.0

_space_group_name_H-M_alt    "P 1"
_space_group_IT_number       1

loop_
  _space_group_symop_operation_xyz
  'x, y, z'

loop_
  _atom_site_type_symbol
  _atom_site_label
  _atom_site_symmetry_multiplicity
  _atom_site_fract_x
  _atom_site_fract_y
  _atom_site_fract_z
  _atom_site_occupancy
  K   K1        1.0  0.06443922515242817  0.9751664925933732  0.5227639284672263  1.0000
  K   K2        1.0  0.23151271939917206  0.8634678105138288  0.6802470943606557  1.0000
  K   K3        1.0  0.4292835022788688  0.6626820336252572  0.9782459685387566  1.0000
  K   K4        1.0  0.945654130166611  0.393886267841718  0.38575962752545423  1.0000
  K   K5        1.0  0.10980923332416037  0.5884148913716922  0.02837956460160518  1.0000
  K   K6        1.0  0.8713607049920835  0.9651868863650391  0.23106363284787934  1.0000
  K   K7        1.0  0.20178013539339745  0.2524050096412419  0.5615727655173313  1.0000
  K   K8        1.0  0.7148743711151158  0.41867519250264196  0.9739214577374531  1.0000
  K   K9        1.0  0.810236191024393  0.6059869605366873  0.20021750013157558  1.0000
  K   K10       1.0  0.9949972923361512  0.4591071894195875  0.8684628838685244  1.0000
  K   K11       1.0  0.5149667052167539  0.4673493723664512  0.35786868620312573  1.0000
  K   K12       1.0  0.7146346688147983  0.8500482808790816  0.4949114218728683  1.0000
  K   K13       1.0  0.43987310060292906  0.6819423489025738  0.6745118981149516  1.0000
  K   K14       1.0  0.1579722182910882  0.1333932281720405  0.8526911697892798  1.0000
  K   K15       1.0  0.11826340051089398  0.5008968058138746  0.5734784229407819  1.0000
  K   K16       1.0  0.7463911690045743  0.23490825720752703  0.5159195518400663  1.0000
  K   K17       1.0  0.15935845827014306  0.2565134369307065  0.10664576597016383  1.0000
  K   K18       1.0  0.4441138614920186  0.7670491491482835  0.27017904661132225  1.0000
  K   K19       1.0  0.7586561122378525  0.2765676526119462  0.8026099724215858  1.0000
  K   K20       1.0  0.39811862297624034  0.9768614134822818  0.9099592902849205  1.0000
  Li  Li1       1.0  0.9481868088843549  0.6329614632012461  0.7314152736053807  1.0000
  Li  Li2       1.0  0.635801588603653  0.7944336955035585  0.2920224045014135  1.0000
  Li  Li3       1.0  0.31302179949346387  0.949550857020734  0.44007391282741426  1.0000
  Li  Li4       1.0  0.1826520743381242  0.9956406725658076  0.25359619095155167  1.0000
  Li  Li5       1.0  0.6594618297107133  0.4336144763114167  0.5549090944188012  1.0000
  Li  Li6       1.0  0.9243618466810155  0.39664147341020944  0.07459979755483048  1.0000
  Li  Li7       1.0  0.19717191746189303  0.8029014578429494  0.1220634768323734  1.0000
  Li  Li8       1.0  0.8494595947822402  0.917346133000389  0.8744631352920715  1.0000
  Li  Li9       1.0  0.918250518184728  0.7078019766586163  0.5982202001503536  1.0000
  Li  Li10      1.0  0.9942326452068593  0.8124224798850488  0.9817333507416264  1.0000
  Tl  Tl1       1.0  0.5613822958874772  0.0698930390946988  0.4170663692936164  1.0000
  Tl  Tl2       1.0  0.7560991173145335  0.5773039989327047  0.6556917033081993  1.0000
  Tl  Tl3       1.0  0.9163414754680407  0.08027577729263732  0.6326497241186492  1.0000
  Tl  Tl4       1.0  0.04770436570594039  0.7344510487073292  0.42062215588121776  1.0000
  Tl  Tl5       1.0  0.26383343332038445  0.5556079760985975  0.7871793612668212  1.0000
  Tl  Tl6       1.0  0.6489491364060925  0.7966465632965787  0.8200917605766653  1.0000
  Tl  Tl7       1.0  0.4294816278374506  0.06134138881250858  0.6488879669168366  1.0000
  Tl  Tl8       1.0  0.2450633361628478  0.5795544881160359  0.23250393515910886  1.0000
  Tl  Tl9       1.0  0.5800111471252583  0.8852183206763596  0.11292112692338874  1.0000
  Tl  Tl10      1.0  0.42338528190887803  0.30423148881027723  0.04512900193686839  1.0000
  F   F1        1.0  0.4120591054087191  0.20217993318464922  0.6479749716842326  1.0000
  F   F2        1.0  0.13951075701807913  0.8380743785721633  0.5084072925377043  1.0000
  F   F3        1.0  0.8589094803262541  0.2941904377014714  0.9474010922461472  1.0000
  F   F4        1.0  0.41276219950287585  0.0037652637475706907  0.3800607576099324  1.0000
  F   F5        1.0  0.8076944717927643  0.5149361271774456  0.3891539381520724  1.0000
  F   F6        1.0  0.6365678382808627  0.9557658754050327  0.34991882640117633  1.0000
  F   F7        1.0  0.035944083589983536  0.8672781205876117  0.3276017268657852  1.0000
  F   F8        1.0  0.5387309231787176  0.8311655610573434  0.7300990145186415  1.0000
  F   F9        1.0  0.6393027951532393  0.6935915408715934  0.6604245158332598  1.0000
  F   F10       1.0  0.016180745446087386  0.6294761395797845  0.8922339210900554  1.0000
  F   F11       1.0  0.6139157098146448  0.6821284636266298  0.9225787056516916  1.0000
  F   F12       1.0  0.8480863430886784  0.5165606545007773  0.7549940356781242  1.0000
  F   F13       1.0  0.9291200447194126  0.9089446463638321  0.9509387004640351  1.0000
  F   F14       1.0  0.8212712540224263  0.221878582888267  0.6749065790663245  1.0000
  F   F15       1.0  0.28272125592446895  0.7266511864322107  0.7701892975612057  1.0000
  F   F16       1.0  0.6566446661743801  0.087178411437832  0.5322030008237956  1.0000
  F   F17       1.0  0.4955854766662449  0.20473882419188838  0.4258398877482281  1.0000
  F   F18       1.0  0.9153365000774296  0.3935688631375694  0.21438103673654255  1.0000
  F   F19       1.0  0.35399188065572346  0.4269709725894466  0.07569249790465504  1.0000
  F   F20       1.0  0.7162173832292515  0.9578276548457043  0.15671256565143107  1.0000
  F   F21       1.0  0.9329307086055325  0.7597144627691049  0.7148718926316399  1.0000
  F   F22       1.0  0.549464402599664  0.4082393224275973  0.009024951833435324  1.0000
  F   F23       1.0  0.416813167526894  0.28325096743201805  0.19853325669603739  1.0000
  F   F24       1.0  0.056752663078727617  0.5712023266466533  0.4068562353008113  1.0000
  F   F25       1.0  0.5303190846942885  0.21416970192823115  0.003490075754660806  1.0000
  F   F26       1.0  0.7411497585665134  0.7460652142190619  0.33535262743069794  1.0000
  F   F27       1.0  0.519381290915796  0.7079859589168684  0.4405958860162517  1.0000
  F   F28       1.0  0.054574819197821235  0.6913893527464817  0.5596454462608377  1.0000
  F   F29       1.0  0.7509281585718719  0.9179236592240769  0.8036511225409146  1.0000
  F   F30       1.0  0.9315616919254288  0.5994808040768588  0.6222294203163112  1.0000
  F   F31       1.0  0.6074412328433336  0.37581339079181375  0.48579547234261855  1.0000
  F   F32       1.0  0.30181555847333086  0.27349493993730223  0.968736321886535  1.0000
  F   F33       1.0  0.05468623645479225  0.33134879125028893  0.03779055536306086  1.0000
  F   F34       1.0  0.3098229218228588  0.7463201997567522  0.16781141464725602  1.0000
  F   F35       1.0  0.7334940524011564  0.42229312261182694  0.6882898673450386  1.0000
  F   F36       1.0  0.043738207945848595  0.30909835664694446  0.5397244547982196  1.0000
  F   F37       1.0  0.31176331167889276  0.5635473350581243  0.6197453560884962  1.0000
  F   F38       1.0  0.2526288025389375  0.9244296650360107  0.12674235997928074  1.0000
  F   F39       1.0  0.4192707640240063  0.9370893498750054  0.5793319338658172  1.0000
  F   F40       1.0  0.05342634489198046  0.9914999667759195  0.7125117855761036  1.0000
  F   F41       1.0  0.6686630893114331  0.5500493720198117  0.5431521172996945  1.0000
  F   F42       1.0  0.8883995865456413  0.7989713707050294  0.473687534493228  1.0000
  F   F43       1.0  0.7519107512996426  0.682149105582375  0.7830380640835966  1.0000
  F   F44       1.0  0.42472657904940075  0.5844554745507252  0.8090991661080146  1.0000
  F   F45       1.0  0.38672442528277856  0.5335119932182179  0.25861377798864593  1.0000
  F   F46       1.0  0.4488752118869015  0.9036129251813293  0.16281406444751  1.0000
  F   F47       1.0  0.778076169430193  0.801614231707577  0.07889478080233073  1.0000
  F   F48       1.0  0.2893914812890779  0.03051874303099056  0.7852990744691987  1.0000
  F   F49       1.0  0.8588021251313814  0.49651375959047517  0.05336150087878222  1.0000
  F   F50       1.0  0.25243916160853064  0.5583608731543133  0.944556663236812  1.0000
  F   F51       1.0  0.8921433283551702  0.08271743575102468  0.46536292773247356  1.0000
  F   F52       1.0  0.16289445824935386  0.09683370690951931  0.2970156656248346  1.0000
  F   F53       1.0  0.48289171843481005  0.8523060027841233  0.9789172167425991  1.0000
  F   F54       1.0  0.24612209560717035  0.07767479157911704  0.5918957517499206  1.0000
  F   F55       1.0  0.08556203961898592  0.7605209208602991  0.04779798985654284  1.0000
  F   F56       1.0  0.4887835400575809  0.040548399435232946  0.7938124316052828  1.0000
  F   F57       1.0  0.19783348320698457  0.42491959768641724  0.7563251795768615  1.0000
  F   F58       1.0  0.7757924066016382  0.42790504449626265  0.49710948288789086  1.0000
  F   F59       1.0  0.15985334375652  0.7189608913676836  0.3077503500050503  1.0000
  F   F60       1.0  0.5711957496672976  0.7251025220989916  0.1934151566937543  1.0000
