data_image0
_chemical_formula_structural       Li12Cd12Fe12F72
_chemical_formula_sum              "Li12 Cd12 Fe12 F72"
_cell_length_a       13.268578483351854
_cell_length_b       13.268578483351854
_cell_length_c       13.268578483351854
_cell_angle_alpha    90.0
_cell_angle_beta     90.0
_cell_angle_gamma    90.0

_space_group_name_H-M_alt    "P 1"
_space_group_IT_number       1

loop_
  _space_group_symop_operation_xyz
  'x, y, z'

loop_
  _atom_site_type_symbol
  _atom_site_label
  _atom_site_symmetry_multiplicity
  _atom_site_fract_x
  _atom_site_fract_y
  _atom_site_fract_z
  _atom_site_occupancy
  Li  Li1       1.0  0.06485411194689245  0.7127275530979271  0.4104625391577641  1.0000
  Li  Li2       1.0  0.5105715598470406  0.2676554562028562  0.2722289427229554  1.0000
  Li  Li3       1.0  0.6668292128872368  0.34227741656858013  0.5322611382627767  1.0000
  Li  Li4       1.0  0.34665279805492055  0.9915383263230614  0.15127159750179084  1.0000
  Li  Li5       1.0  0.055763243678196975  0.5429879280842809  0.9060232943075164  1.0000
  Li  Li6       1.0  0.8318112797509161  0.683773204518111  0.988918777517132  1.0000
  Li  Li7       1.0  0.18040826474885918  0.9670037827184347  0.5576953129094898  1.0000
  Li  Li8       1.0  0.31094201839760105  0.4586025670418874  0.7365409044885458  1.0000
  Li  Li9       1.0  0.9757633796922274  0.3182259070993524  0.7764320362353839  1.0000
  Li  Li10      1.0  0.5767680855869544  0.16817003663303787  0.5306510937822388  1.0000
  Li  Li11      1.0  0.0522181047654362  0.38369009609701366  0.4245856826469865  1.0000
  Li  Li12      1.0  0.7461813738082425  0.17470132843164293  0.8456341820964581  1.0000
  Cd  Cd1       1.0  0.38383329672551675  0.025599251608404483  0.9116236479498702  1.0000
  Cd  Cd2       1.0  0.9928026934866105  0.915913069497678  0.21316132388383896  1.0000
  Cd  Cd3       1.0  0.28538550758376907  0.7232149928986273  0.6180725355229418  1.0000
  Cd  Cd4       1.0  0.623067844536632  0.28525570831577063  0.07696665270267244  1.0000
  Cd  Cd5       1.0  0.7992742776084613  0.4379863436746899  0.3312105540424932  1.0000
  Cd  Cd6       1.0  0.8854796905529999  0.14039892011717903  0.06146217876640603  1.0000
  Cd  Cd7       1.0  0.612417282631043  0.03289357616882244  0.983877648102426  1.0000
  Cd  Cd8       1.0  0.9097247394621512  0.14131226030248695  0.389644358153338  1.0000
  Cd  Cd9       1.0  0.17925194411199097  0.12345612303488296  0.24757025295935398  1.0000
  Cd  Cd10      1.0  0.6528690406072395  0.054349763787788774  0.3326859632485902  1.0000
  Cd  Cd11      1.0  0.5486155420523053  0.5564731532101763  0.35373399139411715  1.0000
  Cd  Cd12      1.0  0.08596084278903171  0.29936461802525755  0.0018792328948018522  1.0000
  Fe  Fe1       1.0  0.9922363989815074  0.03206837973448726  0.8184734640207916  1.0000
  Fe  Fe2       1.0  0.7295262222317987  0.8262832115696099  0.20767165844595642  1.0000
  Fe  Fe3       1.0  0.8086147011258711  0.517122925567092  0.7153383466844881  1.0000
  Fe  Fe4       1.0  0.6782277012609282  0.8406380790233997  0.8655570310763081  1.0000
  Fe  Fe5       1.0  0.15128181208929847  0.9846298503434179  0.9841050018066555  1.0000
  Fe  Fe6       1.0  0.18662456694452653  0.5908767052916578  0.11379211323887822  1.0000
  Fe  Fe7       1.0  0.5970594146592663  0.9668252615802304  0.6505912060726592  1.0000
  Fe  Fe8       1.0  0.0717417324494869  0.5854570280992034  0.5919745876737894  1.0000
  Fe  Fe9       1.0  0.32148044894948347  0.9340925182829453  0.38159571306741435  1.0000
  Fe  Fe10      1.0  0.3535641206386323  0.378789980625972  0.44529790479996245  1.0000
  Fe  Fe11      1.0  0.3797945824710188  0.3442066914379409  0.0013510494990887079  1.0000
  Fe  Fe12      1.0  0.9944925290337042  0.16108990164877895  0.6438447335776205  1.0000
  F   F1        1.0  0.267643114341532  0.9192370065059364  0.23476795008964846  1.0000
  F   F2        1.0  0.23018560345771144  0.04476346197618608  0.8698326631790287  1.0000
  F   F3        1.0  0.8423888895745927  0.007550757732063381  0.14683354236997204  1.0000
  F   F4        1.0  0.18651136623562833  0.6414693934708737  0.2403528104601801  1.0000
  F   F5        1.0  0.8919493531646971  0.1824706887458347  0.7529706364241133  1.0000
  F   F6        1.0  0.8027904888772566  0.7616998129663265  0.8770951585846568  1.0000
  F   F7        1.0  0.8516100049806565  0.5630287358845671  0.8578995357694797  1.0000
  F   F8        1.0  0.5719945543765302  0.7636541582526898  0.9371260032768769  1.0000
  F   F9        1.0  0.5748767613175496  0.1847766344475606  0.18758913518139453  1.0000
  F   F10       1.0  0.10803247653634651  0.12714782391160082  0.5610075559670358  1.0000
  F   F11       1.0  0.43697295037740763  0.210927230256583  0.9872211192347287  1.0000
  F   F12       1.0  0.38841628153083585  0.6136281908719017  0.6670236161524423  1.0000
  F   F13       1.0  0.8574436041917253  0.7927450097429625  0.20453449150727865  1.0000
  F   F14       1.0  0.06255280256154967  0.5330442499407303  0.05818516330472123  1.0000
  F   F15       1.0  0.6863167827571455  0.6234734788963212  0.4121657184130627  1.0000
  F   F16       1.0  0.44281056810995656  0.8820901458102621  0.36382064091734306  1.0000
  F   F17       1.0  0.08578938510065082  0.6647517473353517  0.7002956151204267  1.0000
  F   F18       1.0  0.24997355654994113  0.8915226719995799  0.6445932702854882  1.0000
  F   F19       1.0  0.8736752838781557  0.14710043375904103  0.5641045364200102  1.0000
  F   F20       1.0  0.05038308926563739  0.2227681321614316  0.15638286402760926  1.0000
  F   F21       1.0  0.07910371175133446  0.1428854218309333  0.7624491751144091  1.0000
  F   F22       1.0  0.9839212525719986  0.9784373614866513  0.677090213987598  1.0000
  F   F23       1.0  0.6418022723605961  0.8523660436458302  0.31032840881094703  1.0000
  F   F24       1.0  0.9753905008922974  0.2970821471712226  0.3390095210377362  1.0000
  F   F25       1.0  0.011334538014628137  0.29752254336029876  0.6478889594300612  1.0000
  F   F26       1.0  0.4665051488119626  0.057583345004412534  0.03854364265513466  1.0000
  F   F27       1.0  0.3290858000933495  0.16139353438585688  0.20185014574326243  1.0000
  F   F28       1.0  0.3919415582170287  0.3017210419793872  0.3497374716732997  1.0000
  F   F29       1.0  0.8094377026922792  0.9951431120908216  0.35247972963593477  1.0000
  F   F30       1.0  0.7147779648669714  0.6378433284122066  0.6841247560789792  1.0000
  F   F31       1.0  0.53135710712061  0.39208001589393415  0.46577391834901427  1.0000
  F   F32       1.0  0.04156711565723878  0.38658337348549376  0.8434663821498886  1.0000
  F   F33       1.0  0.13679632850979792  0.714914129994659  0.5274738786577642  1.0000
  F   F34       1.0  0.687219581988328  0.15531074374696577  0.9705851889307306  1.0000
  F   F35       1.0  0.7115669931176759  0.7841977006450616  0.07634393630986666  1.0000
  F   F36       1.0  0.056681036270242464  0.03932480820658784  0.3072051521897865  1.0000
  F   F37       1.0  0.5556372792698139  0.3220988699056456  0.9306265534513553  1.0000
  F   F38       1.0  0.2913871304480603  0.4913639265451777  0.09963935980009508  1.0000
  F   F39       1.0  0.25708151108290295  0.249260289980342  0.9735462867324145  1.0000
  F   F40       1.0  0.34623455650151974  0.3804064606952209  0.5996980351323242  1.0000
  F   F41       1.0  0.2509326368244188  0.8424438867628896  0.45989704873056414  1.0000
  F   F42       1.0  0.9822889341854502  0.8139156268312417  0.3588666231708437  1.0000
  F   F43       1.0  0.4783047667640593  0.3784026590592191  0.08795312574451453  1.0000
  F   F44       1.0  0.3780495167415178  0.5436121605254649  0.3671910024516377  1.0000
  F   F45       1.0  0.21215390635611  0.6907528167058548  0.026803818236095678  1.0000
  F   F46       1.0  0.035058515700145065  0.9160917852004484  0.8860688363400522  1.0000
  F   F47       1.0  0.2929703145760171  0.9370040648468082  0.011351730910205231  1.0000
  F   F48       1.0  0.9243741583655636  0.43644041671743905  0.22321907363727164  1.0000
  F   F49       1.0  0.9618972268006241  0.47775963580292213  0.6705210752470683  1.0000
  F   F50       1.0  0.22404001964855258  0.5671166524424971  0.5919371016643167  1.0000
  F   F51       1.0  0.6339802080421956  0.27412115379326907  0.6331709093004902  1.0000
  F   F52       1.0  0.22617953275686942  0.3094953296031011  0.4508332828838301  1.0000
  F   F53       1.0  0.4977617324706063  0.07031507178982745  0.6416925988906708  1.0000
  F   F54       1.0  0.6319067566311622  0.0017948264947647008  0.5219588264822146  1.0000
  F   F55       1.0  0.6266266265858684  0.3768797704868823  0.24079447325279313  1.0000
  F   F56       1.0  0.5025413369519279  0.8609634734957599  0.6149096887616954  1.0000
  F   F57       1.0  0.8590513465916139  0.03228632983504017  0.8780130739889087  1.0000
  F   F58       1.0  0.9534620421470598  0.6211678452005754  0.5199058062958156  1.0000
  F   F59       1.0  0.0786764148669377  0.4493311489548934  0.525926571086232  1.0000
  F   F60       1.0  0.820349419954142  0.37399960725203746  0.74168716159665  1.0000
  F   F61       1.0  0.7661470712457081  0.22162562744241343  0.40356080976398534  1.0000
  F   F62       1.0  0.7382073007821823  0.8974339326389987  0.7176593158819289  1.0000
  F   F63       1.0  0.556070254257294  0.14691360492180805  0.3912055169982187  1.0000
  F   F64       1.0  0.8984624770259878  0.2683547025152613  0.9809762404730504  1.0000
  F   F65       1.0  0.6462061926264493  0.9756379499448633  0.1568112023564595  1.0000
  F   F66       1.0  0.5691346873290257  0.9547143060398531  0.8227786452626268  1.0000
  F   F67       1.0  0.07958078815805782  0.8991928858775324  0.07820387675021467  1.0000
  F   F68       1.0  0.00893141122671337  0.11092684653449059  0.9576352944707618  1.0000
  F   F69       1.0  0.7421804068980311  0.9199082220559835  0.9797046126141072  1.0000
  F   F70       1.0  0.2688128847396173  0.05037113050148223  0.40601593295910887  1.0000
  F   F71       1.0  0.719578865237843  0.4368016518010595  0.46775226247633955  1.0000
  F   F72       1.0  0.3692685169850892  0.4094386233353158  0.864392140659374  1.0000
