data_image0
_chemical_formula_structural       Li10Ni30O10F50
_chemical_formula_sum              "Li10 Ni30 O10 F50"
_cell_length_a       11.56232698091227
_cell_length_b       11.56232698091227
_cell_length_c       11.56232698091227
_cell_angle_alpha    90.0
_cell_angle_beta     90.0
_cell_angle_gamma    90.0

_space_group_name_H-M_alt    "P 1"
_space_group_IT_number       1

loop_
  _space_group_symop_operation_xyz
  'x, y, z'

loop_
  _atom_site_type_symbol
  _atom_site_label
  _atom_site_symmetry_multiplicity
  _atom_site_fract_x
  _atom_site_fract_y
  _atom_site_fract_z
  _atom_site_occupancy
  Li  Li1       1.0  0.4794774700877418  0.19167715753405368  0.2838324453340064  1.0000
  Li  Li2       1.0  0.8455764932573702  0.24551854674464302  0.23914241854866813  1.0000
  Li  Li3       1.0  0.5932468538765813  0.3242978312974951  0.5130907001124567  1.0000
  Li  Li4       1.0  0.511733514759948  0.9702269330628666  0.7278919699145815  1.0000
  Li  Li5       1.0  0.941238617354061  0.9696680028406993  0.6487619506715765  1.0000
  Li  Li6       1.0  0.5024682287777287  0.1485856603989224  0.9587526620813898  1.0000
  Li  Li7       1.0  0.17641767913796857  0.08473740291388543  0.4711984560871323  1.0000
  Li  Li8       1.0  0.4609657894130711  0.7162188545926735  0.7551629263764063  1.0000
  Li  Li9       1.0  0.1745537461168641  0.4826487041147999  0.08707303667629684  1.0000
  Li  Li10      1.0  0.5134115554389449  0.23316624395484697  0.7880056441819935  1.0000
  Ni  Ni1       1.0  0.8808617479315042  0.2761136267996038  0.6250293678226959  1.0000
  Ni  Ni2       1.0  0.7592115151631997  0.07814368266213252  0.7552315083847106  1.0000
  Ni  Ni3       1.0  0.10834010209536842  0.6753543002236133  0.9188161648930283  1.0000
  Ni  Ni4       1.0  0.6211793540794026  0.8426667703445875  0.9792241458258537  1.0000
  Ni  Ni5       1.0  0.7070835528047864  0.7938240941018119  0.6260076908089331  1.0000
  Ni  Ni6       1.0  0.10187536152131187  0.6073348405023244  0.5053723364522785  1.0000
  Ni  Ni7       1.0  0.6475067096797104  0.4710262331805472  0.3006059914470915  1.0000
  Ni  Ni8       1.0  0.9524085231466803  0.7906525703969703  0.3715247190863942  1.0000
  Ni  Ni9       1.0  0.5911361507888591  0.43201930703653724  0.016384087813597896  1.0000
  Ni  Ni10      1.0  0.8658371574294894  0.8418724384622647  0.8418241477922703  1.0000
  Ni  Ni11      1.0  0.8146610022476276  0.03715706579055389  0.019092439818921614  1.0000
  Ni  Ni12      1.0  0.06505236869728834  0.4645563526123654  0.7069841942775758  1.0000
  Ni  Ni13      1.0  0.44968963922254257  0.893659391797837  0.4368440770906532  1.0000
  Ni  Ni14      1.0  0.3127745970318834  0.8102048404955546  0.20210554534881342  1.0000
  Ni  Ni15      1.0  0.12428199919787235  0.9273614774398035  0.9661074640273816  1.0000
  Ni  Ni16      1.0  0.24502770954062503  0.06257306715887156  0.22692855433405484  1.0000
  Ni  Ni17      1.0  0.8577045645031289  0.6704997144039232  0.03400282572223956  1.0000
  Ni  Ni18      1.0  0.4296604621671134  0.5857406321297733  0.2285867629603271  1.0000
  Ni  Ni19      1.0  0.7911758996915121  0.32695631144210036  0.8273134666658964  1.0000
  Ni  Ni20      1.0  0.36837916315444413  0.31309615886250186  0.11152825234481639  1.0000
  Ni  Ni21      1.0  0.022379428073775465  0.8186792493454287  0.15318371270030284  1.0000
  Ni  Ni22      1.0  0.282396150644985  0.3157193581467644  0.4048139221477722  1.0000
  Ni  Ni23      1.0  0.29267521680838926  0.26416747417584074  0.6849867355762267  1.0000
  Ni  Ni24      1.0  0.6619005440430041  0.4892434030004078  0.6632657169135333  1.0000
  Ni  Ni25      1.0  0.9212854527524499  0.5327903407167731  0.36695250342255237  1.0000
  Ni  Ni26      1.0  0.08303520003949938  0.0973357836727269  0.7680580620669692  1.0000
  Ni  Ni27      1.0  0.3925798093886692  0.662912515609614  0.9767748068186214  1.0000
  Ni  Ni28      1.0  0.8798330640773113  0.6230089092308813  0.6286126119414924  1.0000
  Ni  Ni29      1.0  0.33017564890911155  0.5404495679761999  0.6187659927398418  1.0000
  Ni  Ni30      1.0  0.7257188257867576  0.8502730896556452  0.2933711152425229  1.0000
  O   O1        1.0  0.9931935942528394  0.8114575079388078  0.9835379928506155  1.0000
  O   O2        1.0  0.1864611364848312  0.44936860005540846  0.565158171202337  1.0000
  O   O3        1.0  0.48481198698069483  0.4593137539124036  0.14443833162199227  1.0000
  O   O4        1.0  0.1781959094327601  0.8736027192356802  0.13784239094127737  1.0000
  O   O5        1.0  0.09310462562397204  0.6331945629178707  0.6788638870156996  1.0000
  O   O6        1.0  0.8287050127883657  0.4244362118347179  0.6807915812088141  1.0000
  O   O7        1.0  0.8794870878853323  0.7545722401297821  0.21677957082617105  1.0000
  O   O8        1.0  0.9422039296810892  0.6531533998313466  0.47302208948931107  1.0000
  O   O9        1.0  0.7530782996778597  0.9552851275724535  0.8853293043864269  1.0000
  O   O10       1.0  0.7095605970029798  0.6359940367597603  0.636986429246062  1.0000
  F   F1        1.0  0.11379354165266509  0.11636760583256689  0.30671954748457264  1.0000
  F   F2        1.0  0.5025362172686081  0.5879273668475689  0.6902826735878358  1.0000
  F   F3        1.0  0.4719043970795589  0.28339233092318583  0.9649248837397315  1.0000
  F   F4        1.0  0.41760041781816193  0.957879877170464  0.23382046732925416  1.0000
  F   F5        1.0  0.9117581962150103  0.6780376045886045  0.8395315105051149  1.0000
  F   F6        1.0  0.4414930775396435  0.2517256683697482  0.41683808195228816  1.0000
  F   F7        1.0  0.7989635993714823  0.11283282360934017  0.16698287170321202  1.0000
  F   F8        1.0  0.7234812689599786  0.4424006119042421  0.14449726310940714  1.0000
  F   F9        1.0  0.3808736221736949  0.3790650918488967  0.6469217138627469  1.0000
  F   F10       1.0  0.6907691940222422  0.6855815085740058  0.01778675552161091  1.0000
  F   F11       1.0  0.6747680779675691  0.9597643532565515  0.6378332588252061  1.0000
  F   F12       1.0  0.27903764988355156  0.4266452558839843  0.19222601070164802  1.0000
  F   F13       1.0  0.18612573356938977  0.05849083534215946  0.882876855177744  1.0000
  F   F14       1.0  0.6948712037974574  0.960649881280064  0.1267822599350108  1.0000
  F   F15       1.0  0.8064767790139862  0.8683251890681508  0.44727421795682015  1.0000
  F   F16       1.0  0.4910103359057023  0.5328838839260759  0.37211791260351756  1.0000
  F   F17       1.0  0.08485228115787131  0.48797651376717444  0.38524626479892343  1.0000
  F   F18       1.0  0.8924820114586632  0.18742986003439244  0.8240111611512358  1.0000
  F   F19       1.0  0.27232048203556325  0.23520770891882659  0.2508425818924457  1.0000
  F   F20       1.0  0.2364386736575996  0.8072509807813985  0.9189236834032599  1.0000
  F   F21       1.0  0.09010803902420557  0.036622737079874845  0.6171609428985035  1.0000
  F   F22       1.0  0.8820687831405453  0.1324911449387458  0.6310297721758903  1.0000
  F   F23       1.0  0.41074421211835516  0.16018546812090756  0.6689955174840541  1.0000
  F   F24       1.0  0.6312803914061027  0.2796143708169161  0.33855102987853036  1.0000
  F   F25       1.0  0.3059993891201903  0.6479714116745972  0.1266751371070342  1.0000
  F   F26       1.0  0.5978487503680117  0.9506628831743041  0.3705890164270419  1.0000
  F   F27       1.0  0.13024921565779746  0.2604627641144668  0.734872118492339  1.0000
  F   F28       1.0  0.4177918770701162  0.15238667566746533  0.12945126568806098  1.0000
  F   F29       1.0  0.26617047178802467  0.1877389650009449  0.5313104556358936  1.0000
  F   F30       1.0  0.7615534729359816  0.348640887713377  0.9813256314551553  1.0000
  F   F31       1.0  0.7022077827908376  0.26352743045131344  0.649932810795381  1.0000
  F   F32       1.0  0.047378796779619696  0.4405803182256095  0.8641727966601157  1.0000
  F   F33       1.0  0.6550473647743196  0.45360016375357215  0.4652036939568762  1.0000
  F   F34       1.0  0.29852562909224295  0.6773593028375858  0.6319489611804743  1.0000
  F   F35       1.0  0.604088877587192  0.08491802709201376  0.8643509438314424  1.0000
  F   F36       1.0  0.5452495195991847  0.868304449739026  0.8379904511083667  1.0000
  F   F37       1.0  0.6256397407826253  0.3953535834429203  0.8025346655732607  1.0000
  F   F38       1.0  0.883698211465337  0.35436230679725944  0.33934718706138645  1.0000
  F   F39       1.0  0.09653599612669295  0.7365904429330159  0.3410150690560512  1.0000
  F   F40       1.0  0.4669072429888397  0.8704046124991471  0.6034429920599437  1.0000
  F   F41       1.0  0.6475637234526952  0.6965355182212459  0.2625555273372939  1.0000
  F   F42       1.0  0.8598214512122031  0.8753539416520035  0.6698744760645772  1.0000
  F   F43       1.0  0.008606126069347075  0.9610198048992626  0.796751885218721  1.0000
  F   F44       1.0  0.06206894250782202  0.5887804133293293  0.06481395207178986  1.0000
  F   F45       1.0  0.2512556478323081  0.574620764241921  0.8998082862269986  1.0000
  F   F46       1.0  0.5340109868331733  0.5960039090440831  0.9315050282893135  1.0000
  F   F47       1.0  0.2705003378564525  0.9542087488916282  0.4273272090020171  1.0000
  F   F48       1.0  0.993743390507965  0.0440360328599525  0.038790375301726104  1.0000
  F   F49       1.0  0.4635603942269675  0.8174822653083637  0.06008266130276896  1.0000
  F   F50       1.0  0.38326164854368927  0.7303462238606004  0.34274848148928844  1.0000
