data_image0
_chemical_formula_structural       Cs12Li16B28O56
_chemical_formula_sum              "Cs12 Li16 B28 O56"
_cell_length_a       12.09144610433387
_cell_length_b       12.09144610433387
_cell_length_c       12.09144610433387
_cell_angle_alpha    90.0
_cell_angle_beta     90.0
_cell_angle_gamma    90.0

_space_group_name_H-M_alt    "P 1"
_space_group_IT_number       1

loop_
  _space_group_symop_operation_xyz
  'x, y, z'

loop_
  _atom_site_type_symbol
  _atom_site_label
  _atom_site_symmetry_multiplicity
  _atom_site_fract_x
  _atom_site_fract_y
  _atom_site_fract_z
  _atom_site_occupancy
  Cs  Cs1       1.0  0.9059080349839665  0.24831163472413548  0.4639365577125587  1.0000
  Cs  Cs2       1.0  0.8622875682139106  0.392260858478033  0.7575988629810269  1.0000
  Cs  Cs3       1.0  0.7765859376804296  0.8008889450656174  0.36415629792283843  1.0000
  Cs  Cs4       1.0  0.7546665251044816  0.06767558136371388  0.40674990790588356  1.0000
  Cs  Cs5       1.0  0.11509848844302603  0.9835589954324097  0.7580103189583681  1.0000
  Cs  Cs6       1.0  0.9486383265651277  0.5981498338507516  0.5626197970285519  1.0000
  Cs  Cs7       1.0  0.6391985605493414  0.8015553168468184  0.6921153399619827  1.0000
  Cs  Cs8       1.0  0.7256536040384716  0.9566917663709  0.0989238587791891  1.0000
  Cs  Cs9       1.0  0.16224229228132528  0.9724160546487887  0.4935767522553175  1.0000
  Cs  Cs10      1.0  0.6863613929066447  0.5665836509772678  0.5782106108838696  1.0000
  Cs  Cs11      1.0  0.36662742088324735  0.4380904654070853  0.08251963955150676  1.0000
  Cs  Cs12      1.0  0.4087028918321366  0.9782933440295362  0.6561183621383042  1.0000
  Li  Li1       1.0  0.7600471619868365  0.17377925714577014  0.8821559512852545  1.0000
  Li  Li2       1.0  0.42253386218947414  0.0997455554051967  0.22022766435444768  1.0000
  Li  Li3       1.0  0.03451957539040751  0.5342529308182821  0.9822987409308779  1.0000
  Li  Li4       1.0  0.27244365379365126  0.27132433137307804  0.42565265309531347  1.0000
  Li  Li5       1.0  0.2595232950065556  0.07011584794117542  0.16227459582141932  1.0000
  Li  Li6       1.0  0.927006415861646  0.8120815262714078  0.6550763600460506  1.0000
  Li  Li7       1.0  0.4920465363174119  0.7211362149481022  0.3008168534210579  1.0000
  Li  Li8       1.0  0.7215917888743691  0.4329942712294715  0.28735805575861684  1.0000
  Li  Li9       1.0  0.5512688802682442  0.2850635455678176  0.3919915231630083  1.0000
  Li  Li10      1.0  0.37266807430155807  0.8035343579308544  0.9534459903743828  1.0000
  Li  Li11      1.0  0.48919815431647207  0.09474690471979466  0.9729719729113997  1.0000
  Li  Li12      1.0  0.09827104130720486  0.2250853106436725  0.0323695537638311  1.0000
  Li  Li13      1.0  0.39610261542515707  0.7760917381355824  0.5456093245767101  1.0000
  Li  Li14      1.0  0.7450595837085799  0.4993108881421067  0.014234591224751783  1.0000
  Li  Li15      1.0  0.5548551931908902  0.2881951088462743  0.8105191522153132  1.0000
  Li  Li16      1.0  0.407263779808414  0.42449760038064094  0.7389424135299967  1.0000
  B   B1        1.0  0.15041418377143168  0.5703161790817127  0.33433611036159894  1.0000
  B   B2        1.0  0.10955539156711258  0.6982585486837141  0.06363926617182747  1.0000
  B   B3        1.0  0.26797503218768476  0.7768201418976228  0.4078452855256737  1.0000
  B   B4        1.0  0.2035214311153797  0.3889427636931608  0.4354749766566594  1.0000
  B   B5        1.0  0.5569248072147401  0.5771750021750872  0.3155750168582814  1.0000
  B   B6        1.0  0.8274098848735121  0.48697110660107756  0.3285780214687812  1.0000
  B   B7        1.0  0.12849898075631694  0.6823109310462173  0.3596190076941045  1.0000
  B   B8        1.0  0.8418953663513433  0.7078498812174021  0.771897210973372  1.0000
  B   B9        1.0  0.286169032002092  0.26777740023748464  0.8163773027596343  1.0000
  B   B10       1.0  0.41250711902855763  0.6974377729009401  0.7838457705987274  1.0000
  B   B11       1.0  0.12218779640415467  0.11671045695497013  0.03278569106042273  1.0000
  B   B12       1.0  0.639750738953389  0.22896871058927237  0.6129202766974139  1.0000
  B   B13       1.0  0.33043885286936003  0.57250526630071  0.39620573215338456  1.0000
  B   B14       1.0  0.8810338970584536  0.10271840479644534  0.9959209583340103  1.0000
  B   B15       1.0  0.36192741056554695  0.08865433155469424  0.8845395276156658  1.0000
  B   B16       1.0  0.6375847704971919  0.12435596649292346  0.7062534269077517  1.0000
  B   B17       1.0  0.4369184895672306  0.9355872877728431  0.3606016618578466  1.0000
  B   B18       1.0  0.8393789193527228  0.09326341968934557  0.6925874006071077  1.0000
  B   B19       1.0  0.4826117187148872  0.16908022816761945  0.327505407075024  1.0000
  B   B20       1.0  0.0958162860154077  0.2545849613134149  0.2186951001806876  1.0000
  B   B21       1.0  0.6484238594585369  0.26814070720322064  0.2171864733590947  1.0000
  B   B22       1.0  0.6840763786111309  0.6649160705957748  0.16375139525645374  1.0000
  B   B23       1.0  0.19705699450435057  0.4951614818669394  0.8038359448929848  1.0000
  B   B24       1.0  0.5141008766801022  0.7459742989913466  0.09256919684734244  1.0000
  B   B25       1.0  0.5935595824653159  0.49714850733653004  0.8411328135278593  1.0000
  B   B26       1.0  0.11966592293912447  0.2171531437359111  0.516433748645897  1.0000
  B   B27       1.0  0.596575233415592  0.0981367360740752  0.9000276353006446  1.0000
  B   B28       1.0  0.2488657320154349  0.836460775816909  0.07765543828650545  1.0000
  O   O1        1.0  0.5931839080512884  0.6209588254766237  0.8483591466377618  1.0000
  O   O2        1.0  0.27211193987704285  0.7657760290427074  0.010120792931876963  1.0000
  O   O3        1.0  0.9485333438238926  0.020581686108426755  0.031078793625265718  1.0000
  O   O4        1.0  0.5302116006039581  0.19775792619060084  0.8988521012063417  1.0000
  O   O5        1.0  0.06200284627728484  0.7316909766272494  0.9589504400311778  1.0000
  O   O6        1.0  0.17295716069302158  0.3884849148747114  0.8205494789279171  1.0000
  O   O7        1.0  0.12381601591757091  0.4876426093611953  0.3680941777628227  1.0000
  O   O8        1.0  0.6803957406755837  0.08278084687976883  0.931194343966349  1.0000
  O   O9        1.0  0.7058924402857045  0.5742461805123429  0.10371080700791138  1.0000
  O   O10       1.0  0.5340090227304949  0.4296381736251033  0.7946881163277407  1.0000
  O   O11       1.0  0.7049011160161806  0.26270537109907627  0.5463137483203752  1.0000
  O   O12       1.0  0.4046762476255437  0.2103655258035646  0.7664789977173262  1.0000
  O   O13       1.0  0.948288735643998  0.9425718387286014  0.39349710270424587  1.0000
  O   O14       1.0  0.5060788111280254  0.6508456645935884  0.7332201613976053  1.0000
  O   O15       1.0  0.21298044025843588  0.07034219458639777  0.01782916467648943  1.0000
  O   O16       1.0  0.22409784766256613  0.6526092424130954  0.29918704184562184  1.0000
  O   O17       1.0  0.7142663576236834  0.3678639693588404  0.12359988085846173  1.0000
  O   O18       1.0  0.9452496688182047  0.09625823616456519  0.38474735257473514  1.0000
  O   O19       1.0  0.12996642351245158  0.5360472511906049  0.8795691422014873  1.0000
  O   O20       1.0  0.3472165310531316  0.4522608278800147  0.4845948499576016  1.0000
  O   O21       1.0  0.61950829262672  0.6676850575556502  0.2705226494970082  1.0000
  O   O22       1.0  0.06403416820189212  0.627116210088354  0.26229588879170285  1.0000
  O   O23       1.0  0.8983983085734766  0.18651264941941276  0.955577435365745  1.0000
  O   O24       1.0  0.574616149479328  0.020775536058860622  0.7308111143674139  1.0000
  O   O25       1.0  0.7090337610831026  0.48397212771949216  0.18461534573920113  1.0000
  O   O26       1.0  0.47064656464920934  0.5654512909293165  0.36558773801241123  1.0000
  O   O27       1.0  0.13709873155345623  0.2481240644657865  0.9117624077395619  1.0000
  O   O28       1.0  0.20345134237378804  0.10801294673690802  0.3047558500115003  1.0000
  O   O29       1.0  0.697178337382397  0.2910609004582817  0.30802987582211444  1.0000
  O   O30       1.0  0.5707976058249105  0.1718868728601204  0.29471758795943515  1.0000
  O   O31       1.0  0.47841863238902055  0.7293640818072652  0.9424435396863952  1.0000
  O   O32       1.0  0.26641825392403373  0.8460443813459627  0.2227691230254525  1.0000
  O   O33       1.0  0.6281948103002994  0.7357824832675172  0.048749763017158054  1.0000
  O   O34       1.0  0.052759632845007495  0.33174320362439125  0.9399097627135297  1.0000
  O   O35       1.0  0.5156609943226476  0.996706575508479  0.3766218310508856  1.0000
  O   O36       1.0  0.3913235070389008  0.1714999723181433  0.3290866737903513  1.0000
  O   O37       1.0  0.4057339278082924  0.28138793235016957  0.37684003310579445  1.0000
  O   O38       1.0  0.596647406960856  0.48150937397898746  0.33047245698053673  1.0000
  O   O39       1.0  0.29804157766293793  0.6868066420246818  0.8252480919900873  1.0000
  O   O40       1.0  0.37740635114018617  0.06719755736651867  0.9970209739492105  1.0000
  O   O41       1.0  0.4459768205243394  0.7453496651161864  0.1996835865327527  1.0000
  O   O42       1.0  0.6841670380963842  0.431307237376911  0.9005334962429572  1.0000
  O   O43       1.0  0.8189183601080949  0.6162196706790759  0.8299411045744349  1.0000
  O   O44       1.0  0.3491606866543735  0.7015281863416956  0.41954100589350246  1.0000
  O   O45       1.0  0.3065916529659637  0.95824323626457  0.8779670043712277  1.0000
  O   O46       1.0  0.2914598271877757  0.48290324926905037  0.7176067073500156  1.0000
  O   O47       1.0  0.25075191304896305  0.28798931136650835  0.7099463772450301  1.0000
  O   O48       1.0  0.28533025674471035  0.13614404376844358  0.8576577341680134  1.0000
  O   O49       1.0  0.009902343262643054  0.5544670602916599  0.12330621598132496  1.0000
  O   O50       1.0  0.19690669605142472  0.23205382937180685  0.29261304036858204  1.0000
  O   O51       1.0  0.4243362126474455  0.320710011511108  0.7752209649615187  1.0000
  O   O52       1.0  0.06923303359632627  0.24377762526857835  0.13128365315530632  1.0000
  O   O53       1.0  0.9454591186454245  0.085552912475658  0.6556280556153032  1.0000
  O   O54       1.0  0.039333231857698214  0.4462715869731392  0.23650839677162386  1.0000
  O   O55       1.0  0.1623085566395579  0.6846519746387794  0.146211995127161  1.0000
  O   O56       1.0  0.7214101753829519  0.2164944074089079  0.1297527309944019  1.0000
